version 2
run General-1-20160119-11:48:08-43657
attr configname General
attr datetime 20160119-11:48:08
attr experiment General
attr inifile prophet.omnetpp.ini
attr iterationvars ""
attr iterationvars2 $repetition=1
attr measurement ""
attr network org.mixim.examples.veins.scenarioOpp
attr processid 43657
attr repetition 1
attr replication #1
attr resultdir results
attr runnumber 1
attr seedset 1

scalar scenarioOpp.node[0].appl 	"# Bundle Sent" 	0
scalar scenarioOpp.node[0].appl 	"# Bundle Received" 	0
scalar scenarioOpp.node[0].netw 	"# L3Sent" 	1411
scalar scenarioOpp.node[0].netw 	"# L3Received" 	1415
scalar scenarioOpp.node[0].netw 	"# of Contacts" 	189
scalar scenarioOpp.node[0].netw 	"# of InterContacts" 	82
scalar scenarioOpp.node[0].netw 	"Global: # nbrContact" 	189
scalar scenarioOpp.node[0].netw 	"Global: # nbrToDiscard" 	0
scalar scenarioOpp.node[0].netw 	"Global: % repeated" 	45.502645502645
scalar scenarioOpp.node[0].netw 	"Global: # L3Sent" 	1411
scalar scenarioOpp.node[0].netw 	"Global: # L3Received" 	1415
scalar scenarioOpp.node[0].netw 	"Global: # BundleSent" 	904
scalar scenarioOpp.node[0].netw 	"Global: # BundleReceived" 	828
scalar scenarioOpp.node[0].netw 	"Global: # AckSent" 	75791
scalar scenarioOpp.node[0].netw 	"Global: # AckReceived" 	80619
scalar scenarioOpp.node[0].netw 	"Global: # PredictionsSent" 	29061
scalar scenarioOpp.node[0].netw 	"Global: # PredictionsReceived" 	24094
statistic scenarioOpp.node[0].netw 	"Global: DurationStats"
field count 189
field mean 20.206349206349
field stddev 50.833947045642
field sum 3819
field sqrsum 562977
field min 0
field max 465
bin	-INF	0
bin	-232.5	0
bin	-201.5	0
bin	-170.5	0
bin	-139.5	0
bin	-108.5	0
bin	-77.5	0
bin	-46.5	0
bin	-15.5	155
bin	15.5	26
bin	46.5	0
bin	77.5	0
bin	108.5	0
bin	139.5	5
bin	170.5	0
bin	201.5	0
bin	232.5	0
bin	263.5	0
bin	294.5	2
bin	325.5	0
bin	356.5	0
bin	387.5	0
bin	418.5	0
bin	449.5	1
bin	480.5	0
bin	511.5	0
bin	542.5	0
bin	573.5	0
bin	604.5	0
bin	635.5	0
bin	666.5	0
bin	697.5	0
scalar scenarioOpp.node[0].netw 	"Successful: # nbrContact" 	10
scalar scenarioOpp.node[0].netw 	"Successful: # nbrToDiscard" 	0
scalar scenarioOpp.node[0].netw 	"Successful: % repeated" 	0
scalar scenarioOpp.node[0].netw 	"Successful: # L3Sent" 	28
scalar scenarioOpp.node[0].netw 	"Successful: # L3Received" 	22
scalar scenarioOpp.node[0].netw 	"Successful: # BundleSent" 	9
scalar scenarioOpp.node[0].netw 	"Successful: # BundleReceived" 	0
scalar scenarioOpp.node[0].netw 	"Successful: # AckSent" 	4
scalar scenarioOpp.node[0].netw 	"Successful: # AckReceived" 	0
scalar scenarioOpp.node[0].netw 	"Successful: # PredictionsSent" 	193
scalar scenarioOpp.node[0].netw 	"Successful: # PredictionsReceived" 	158
statistic scenarioOpp.node[0].netw 	"Successful: DurationStats"
field count 10
field mean 42
field stddev 93.565188208246
field sum 420
field sqrsum 96430
field min 9
field max 308
bin	-INF	0
bin	-140.5	0
bin	-120.56666666667	0
bin	-100.63333333333	0
bin	-80.7	0
bin	-60.766666666667	0
bin	-40.833333333333	0
bin	-20.9	0
bin	-0.96666666666667	7
bin	18.966666666667	2
bin	38.9	0
bin	58.833333333333	0
bin	78.766666666667	0
bin	98.7	0
bin	118.63333333333	0
bin	138.56666666667	0
bin	158.5	0
bin	178.43333333333	0
bin	198.36666666667	0
bin	218.3	0
bin	238.23333333333	0
bin	258.16666666667	0
bin	278.1	0
bin	298.03333333333	1
bin	317.96666666667	0
bin	337.9	0
bin	357.83333333333	0
bin	377.76666666667	0
bin	397.7	0
bin	417.63333333333	0
bin	437.56666666667	0
bin	457.5	0
scalar scenarioOpp.node[0].netw 	"Failed: # nbrContact" 	179
scalar scenarioOpp.node[0].netw 	"Failed: # nbrToDiscard" 	0
scalar scenarioOpp.node[0].netw 	"Failed: % repeated" 	48.04469273743
scalar scenarioOpp.node[0].netw 	"Failed: # L3Sent" 	1383
scalar scenarioOpp.node[0].netw 	"Failed: # L3Received" 	1393
scalar scenarioOpp.node[0].netw 	"Failed: # BundleSent" 	895
scalar scenarioOpp.node[0].netw 	"Failed: # BundleReceived" 	828
scalar scenarioOpp.node[0].netw 	"Failed: # AckSent" 	75787
scalar scenarioOpp.node[0].netw 	"Failed: # AckReceived" 	80619
scalar scenarioOpp.node[0].netw 	"Failed: # PredictionsSent" 	28868
scalar scenarioOpp.node[0].netw 	"Failed: # PredictionsReceived" 	23936
statistic scenarioOpp.node[0].netw 	"Failed: DurationStats"
field count 179
field mean 18.988826815642
field stddev 47.523145020725
field sum 3399
field sqrsum 466547
field min 0
field max 465
bin	-INF	0
bin	-232.5	0
bin	-201.5	0
bin	-170.5	0
bin	-139.5	0
bin	-108.5	0
bin	-77.5	0
bin	-46.5	0
bin	-15.5	148
bin	15.5	24
bin	46.5	0
bin	77.5	0
bin	108.5	0
bin	139.5	5
bin	170.5	0
bin	201.5	0
bin	232.5	0
bin	263.5	0
bin	294.5	1
bin	325.5	0
bin	356.5	0
bin	387.5	0
bin	418.5	0
bin	449.5	1
bin	480.5	0
bin	511.5	0
bin	542.5	0
bin	573.5	0
bin	604.5	0
bin	635.5	0
bin	666.5	0
bin	697.5	0
statistic scenarioOpp.node[0].netw 	"Histogram for max nbr repeated contact"
field count 49
field mean 1.6734693877551
field stddev 0.92167770718314
field sum 82
field sqrsum 178
field min 1
field max 4
attr type  int
bin	-INF	0
bin	-1	0
bin	0	0
bin	1	27
bin	2	15
bin	3	3
bin	4	4
bin	5	0
bin	6	0
scalar scenarioOpp.node[0].netw 	"Bars for #repeated 1" 	49
scalar scenarioOpp.node[0].netw 	"Bars for #repeated 2" 	22
scalar scenarioOpp.node[0].netw 	"Bars for #repeated 3" 	7
scalar scenarioOpp.node[0].netw 	"Bars for #repeated 4" 	4
scalar scenarioOpp.node[0].netw 	"Bars for #repeated 5" 	0
scalar scenarioOpp.node[0].netw 	"Contact CDF LQ1 #repeated 1" 	2
scalar scenarioOpp.node[0].netw 	"Contact CDF G1LQ5 #repeated 1" 	0
scalar scenarioOpp.node[0].netw 	"Contact CDF G5LQ20 #repeated 1" 	45
scalar scenarioOpp.node[0].netw 	"Contact CDF G20LQ50 #repeated 1" 	0
scalar scenarioOpp.node[0].netw 	"Contact CDF G50LQ100 #repeated 1" 	0
scalar scenarioOpp.node[0].netw 	"Contact CDF G100LQ500 #repeated 1" 	0
scalar scenarioOpp.node[0].netw 	"Contact CDF G500 #repeated 1" 	0
scalar scenarioOpp.node[0].netw 	"Contact CDF LQ1 #repeated 2" 	3
scalar scenarioOpp.node[0].netw 	"Contact CDF G1LQ5 #repeated 2" 	0
scalar scenarioOpp.node[0].netw 	"Contact CDF G5LQ20 #repeated 2" 	18
scalar scenarioOpp.node[0].netw 	"Contact CDF G20LQ50 #repeated 2" 	0
scalar scenarioOpp.node[0].netw 	"Contact CDF G50LQ100 #repeated 2" 	0
scalar scenarioOpp.node[0].netw 	"Contact CDF G100LQ500 #repeated 2" 	0
scalar scenarioOpp.node[0].netw 	"Contact CDF G500 #repeated 2" 	0
scalar scenarioOpp.node[0].netw 	"Contact CDF LQ1 #repeated 3" 	1
scalar scenarioOpp.node[0].netw 	"Contact CDF G1LQ5 #repeated 3" 	0
scalar scenarioOpp.node[0].netw 	"Contact CDF G5LQ20 #repeated 3" 	5
scalar scenarioOpp.node[0].netw 	"Contact CDF G20LQ50 #repeated 3" 	1
scalar scenarioOpp.node[0].netw 	"Contact CDF G50LQ100 #repeated 3" 	0
scalar scenarioOpp.node[0].netw 	"Contact CDF G100LQ500 #repeated 3" 	0
scalar scenarioOpp.node[0].netw 	"Contact CDF G500 #repeated 3" 	0
scalar scenarioOpp.node[0].netw 	"Contact CDF LQ1 #repeated 4" 	1
scalar scenarioOpp.node[0].netw 	"Contact CDF G1LQ5 #repeated 4" 	0
scalar scenarioOpp.node[0].netw 	"Contact CDF G5LQ20 #repeated 4" 	1
scalar scenarioOpp.node[0].netw 	"Contact CDF G20LQ50 #repeated 4" 	2
scalar scenarioOpp.node[0].netw 	"Contact CDF G50LQ100 #repeated 4" 	0
scalar scenarioOpp.node[0].netw 	"Contact CDF G100LQ500 #repeated 4" 	0
scalar scenarioOpp.node[0].netw 	"Contact CDF G500 #repeated 4" 	0
scalar scenarioOpp.node[0].netw 	"InterContact CDF LQ1 #repeated 1" 	5
scalar scenarioOpp.node[0].netw 	"InterContact CDF G1LQ5 #repeated 1" 	0
scalar scenarioOpp.node[0].netw 	"InterContact CDF G5LQ20 #repeated 1" 	0
scalar scenarioOpp.node[0].netw 	"InterContact CDF G20LQ50 #repeated 1" 	0
scalar scenarioOpp.node[0].netw 	"InterContact CDF G50LQ100 #repeated 1" 	0
scalar scenarioOpp.node[0].netw 	"InterContact CDF G100LQ500 #repeated 1" 	0
scalar scenarioOpp.node[0].netw 	"InterContact CDF G500 #repeated 1" 	33
scalar scenarioOpp.node[0].netw 	"InterContact CDF LQ1 #repeated 2" 	2
scalar scenarioOpp.node[0].netw 	"InterContact CDF G1LQ5 #repeated 2" 	0
scalar scenarioOpp.node[0].netw 	"InterContact CDF G5LQ20 #repeated 2" 	0
scalar scenarioOpp.node[0].netw 	"InterContact CDF G20LQ50 #repeated 2" 	0
scalar scenarioOpp.node[0].netw 	"InterContact CDF G50LQ100 #repeated 2" 	0
scalar scenarioOpp.node[0].netw 	"InterContact CDF G100LQ500 #repeated 2" 	0
scalar scenarioOpp.node[0].netw 	"InterContact CDF G500 #repeated 2" 	11
scalar scenarioOpp.node[0].netw 	"InterContact CDF LQ1 #repeated 3" 	2
scalar scenarioOpp.node[0].netw 	"InterContact CDF G1LQ5 #repeated 3" 	0
scalar scenarioOpp.node[0].netw 	"InterContact CDF G5LQ20 #repeated 3" 	0
scalar scenarioOpp.node[0].netw 	"InterContact CDF G20LQ50 #repeated 3" 	0
scalar scenarioOpp.node[0].netw 	"InterContact CDF G50LQ100 #repeated 3" 	0
scalar scenarioOpp.node[0].netw 	"InterContact CDF G100LQ500 #repeated 3" 	0
scalar scenarioOpp.node[0].netw 	"InterContact CDF G500 #repeated 3" 	3
scalar scenarioOpp.node[0].netw 	"InterContact CDF LQ1 #repeated 4" 	1
scalar scenarioOpp.node[0].netw 	"InterContact CDF G1LQ5 #repeated 4" 	0
scalar scenarioOpp.node[0].netw 	"InterContact CDF G5LQ20 #repeated 4" 	0
scalar scenarioOpp.node[0].netw 	"InterContact CDF G20LQ50 #repeated 4" 	0
scalar scenarioOpp.node[0].netw 	"InterContact CDF G50LQ100 #repeated 4" 	0
scalar scenarioOpp.node[0].netw 	"InterContact CDF G100LQ500 #repeated 4" 	0
scalar scenarioOpp.node[0].netw 	"InterContact CDF G500 #repeated 4" 	2
statistic scenarioOpp.node[0].netw 	"Histogram for total contact duration"
field count 49
field mean 30.571428571429
field stddev 54.390179873454
field sum 1498
field sqrsum 187794
field min 4
field max 315
attr type  int
bin	-INF	0
bin	-152	0
bin	-148	0
bin	-144	0
bin	-140	0
bin	-136	0
bin	-132	0
bin	-128	0
bin	-124	0
bin	-120	0
bin	-116	0
bin	-112	0
bin	-108	0
bin	-104	0
bin	-100	0
bin	-96	0
bin	-92	0
bin	-88	0
bin	-84	0
bin	-80	0
bin	-76	0
bin	-72	0
bin	-68	0
bin	-64	0
bin	-60	0
bin	-56	0
bin	-52	0
bin	-48	0
bin	-44	0
bin	-40	0
bin	-36	0
bin	-32	0
bin	-28	0
bin	-24	0
bin	-20	0
bin	-16	0
bin	-12	0
bin	-8	0
bin	-4	0
bin	0	0
bin	4	1
bin	8	23
bin	12	2
bin	16	9
bin	20	4
bin	24	1
bin	28	1
bin	32	0
bin	36	0
bin	40	3
bin	44	0
bin	48	0
bin	52	0
bin	56	0
bin	60	0
bin	64	0
bin	68	0
bin	72	0
bin	76	0
bin	80	1
bin	84	0
bin	88	1
bin	92	0
bin	96	0
bin	100	0
bin	104	0
bin	108	0
bin	112	0
bin	116	0
bin	120	0
bin	124	0
bin	128	0
bin	132	0
bin	136	0
bin	140	0
bin	144	0
bin	148	0
bin	152	0
bin	156	0
bin	160	1
bin	164	0
bin	168	0
bin	172	0
bin	176	0
bin	180	0
bin	184	1
bin	188	0
bin	192	0
bin	196	0
bin	200	0
bin	204	0
bin	208	0
bin	212	0
bin	216	0
bin	220	0
bin	224	0
bin	228	0
bin	232	0
bin	236	0
bin	240	0
bin	244	0
bin	248	0
bin	252	0
bin	256	0
bin	260	0
bin	264	0
bin	268	0
bin	272	0
bin	276	0
bin	280	0
bin	284	0
bin	288	0
bin	292	0
bin	296	0
bin	300	0
bin	304	0
bin	308	0
bin	312	1
bin	316	0
bin	320	0
bin	324	0
bin	328	0
bin	332	0
bin	336	0
bin	340	0
bin	344	0
bin	348	0
bin	352	0
bin	356	0
bin	360	0
bin	364	0
bin	368	0
bin	372	0
bin	376	0
bin	380	0
bin	384	0
bin	388	0
bin	392	0
bin	396	0
bin	400	0
bin	404	0
bin	408	0
bin	412	0
bin	416	0
bin	420	0
bin	424	0
bin	428	0
bin	432	0
bin	436	0
bin	440	0
bin	444	0
bin	448	0
bin	452	0
bin	456	0
bin	460	0
bin	464	0
bin	468	0
bin	472	0
statistic scenarioOpp.node[0].netw 	"Histogram for total interContact duration"
field count 49
field mean 1042.2653061224
field stddev 780.72895359375
field sum 51071
field sqrsum 82487341
field min 0
field max 3167
attr type  int
bin	-INF	0
bin	-1584	0
bin	-1552	0
bin	-1520	0
bin	-1488	0
bin	-1456	0
bin	-1424	0
bin	-1392	0
bin	-1360	0
bin	-1328	0
bin	-1296	0
bin	-1264	0
bin	-1232	0
bin	-1200	0
bin	-1168	0
bin	-1136	0
bin	-1104	0
bin	-1072	0
bin	-1040	0
bin	-1008	0
bin	-976	0
bin	-944	0
bin	-912	0
bin	-880	0
bin	-848	0
bin	-816	0
bin	-784	0
bin	-752	0
bin	-720	0
bin	-688	0
bin	-656	0
bin	-624	0
bin	-592	0
bin	-560	0
bin	-528	0
bin	-496	0
bin	-464	0
bin	-432	0
bin	-400	0
bin	-368	0
bin	-336	0
bin	-304	0
bin	-272	0
bin	-240	0
bin	-208	0
bin	-176	0
bin	-144	0
bin	-112	0
bin	-80	0
bin	-48	0
bin	-16	2
bin	16	0
bin	48	0
bin	80	0
bin	112	6
bin	144	0
bin	176	0
bin	208	0
bin	240	0
bin	272	1
bin	304	0
bin	336	0
bin	368	0
bin	400	1
bin	432	2
bin	464	0
bin	496	0
bin	528	0
bin	560	6
bin	592	0
bin	624	0
bin	656	1
bin	688	1
bin	720	3
bin	752	0
bin	784	0
bin	816	0
bin	848	2
bin	880	1
bin	912	0
bin	944	0
bin	976	0
bin	1008	1
bin	1040	0
bin	1072	0
bin	1104	2
bin	1136	3
bin	1168	1
bin	1200	0
bin	1232	0
bin	1264	0
bin	1296	3
bin	1328	0
bin	1360	0
bin	1392	0
bin	1424	2
bin	1456	1
bin	1488	0
bin	1520	0
bin	1552	0
bin	1584	1
bin	1616	0
bin	1648	0
bin	1680	0
bin	1712	1
bin	1744	0
bin	1776	0
bin	1808	0
bin	1840	0
bin	1872	1
bin	1904	0
bin	1936	0
bin	1968	0
bin	2000	0
bin	2032	0
bin	2064	0
bin	2096	0
bin	2128	0
bin	2160	3
bin	2192	0
bin	2224	0
bin	2256	0
bin	2288	0
bin	2320	2
bin	2352	0
bin	2384	0
bin	2416	0
bin	2448	0
bin	2480	0
bin	2512	0
bin	2544	0
bin	2576	0
bin	2608	0
bin	2640	0
bin	2672	0
bin	2704	0
bin	2736	0
bin	2768	0
bin	2800	0
bin	2832	0
bin	2864	0
bin	2896	0
bin	2928	0
bin	2960	0
bin	2992	0
bin	3024	0
bin	3056	0
bin	3088	0
bin	3120	0
bin	3152	2
bin	3184	0
bin	3216	0
bin	3248	0
bin	3280	0
bin	3312	0
bin	3344	0
bin	3376	0
bin	3408	0
bin	3440	0
bin	3472	0
bin	3504	0
bin	3536	0
bin	3568	0
bin	3600	0
bin	3632	0
bin	3664	0
bin	3696	0
bin	3728	0
bin	3760	0
bin	3792	0
bin	3824	0
bin	3856	0
bin	3888	0
bin	3920	0
bin	3952	0
bin	3984	0
bin	4016	0
bin	4048	0
bin	4080	0
bin	4112	0
bin	4144	0
bin	4176	0
bin	4208	0
bin	4240	0
bin	4272	0
bin	4304	0
bin	4336	0
bin	4368	0
bin	4400	0
bin	4432	0
bin	4464	0
bin	4496	0
bin	4528	0
bin	4560	0
bin	4592	0
bin	4624	0
bin	4656	0
bin	4688	0
bin	4720	0
bin	4752	0
scalar scenarioOpp.node[0].mobility 	Community 	0
scalar scenarioOpp.node[14].appl 	"# Bundle Sent" 	0
scalar scenarioOpp.node[14].appl 	"# Bundle Received" 	0
scalar scenarioOpp.node[14].netw 	"# L3Sent" 	1588
scalar scenarioOpp.node[14].netw 	"# L3Received" 	1339
scalar scenarioOpp.node[14].netw 	"# of Contacts" 	290
scalar scenarioOpp.node[14].netw 	"# of InterContacts" 	121
scalar scenarioOpp.node[14].netw 	"Global: # nbrContact" 	290
scalar scenarioOpp.node[14].netw 	"Global: # nbrToDiscard" 	1
scalar scenarioOpp.node[14].netw 	"Global: % repeated" 	42.068965517241
scalar scenarioOpp.node[14].netw 	"Global: # L3Sent" 	1588
scalar scenarioOpp.node[14].netw 	"Global: # L3Received" 	1339
scalar scenarioOpp.node[14].netw 	"Global: # BundleSent" 	837
scalar scenarioOpp.node[14].netw 	"Global: # BundleReceived" 	540
scalar scenarioOpp.node[14].netw 	"Global: # AckSent" 	133675
scalar scenarioOpp.node[14].netw 	"Global: # AckReceived" 	131384
scalar scenarioOpp.node[14].netw 	"Global: # PredictionsSent" 	51450
scalar scenarioOpp.node[14].netw 	"Global: # PredictionsReceived" 	40633
statistic scenarioOpp.node[14].netw 	"Global: DurationStats"
field count 290
field mean 17.258620689655
field stddev 43.079696140342
field sum 5005
field sqrsum 622723
field min 0
field max 458
bin	-INF	0
bin	-229	0
bin	-198.46666666667	0
bin	-167.93333333333	0
bin	-137.4	0
bin	-106.86666666667	0
bin	-76.333333333333	0
bin	-45.8	0
bin	-15.266666666667	248
bin	15.266666666667	32
bin	45.8	0
bin	76.333333333333	0
bin	106.86666666667	0
bin	137.4	5
bin	167.93333333333	2
bin	198.46666666667	0
bin	229	0
bin	259.53333333333	0
bin	290.06666666667	2
bin	320.6	0
bin	351.13333333333	0
bin	381.66666666667	0
bin	412.2	0
bin	442.73333333333	1
bin	473.26666666667	0
bin	503.8	0
bin	534.33333333333	0
bin	564.86666666667	0
bin	595.4	0
bin	625.93333333333	0
bin	656.46666666667	0
bin	687	0
scalar scenarioOpp.node[14].netw 	"Successful: # nbrContact" 	3
scalar scenarioOpp.node[14].netw 	"Successful: # nbrToDiscard" 	0
scalar scenarioOpp.node[14].netw 	"Successful: % repeated" 	0
scalar scenarioOpp.node[14].netw 	"Successful: # L3Sent" 	6
scalar scenarioOpp.node[14].netw 	"Successful: # L3Received" 	6
scalar scenarioOpp.node[14].netw 	"Successful: # BundleSent" 	0
scalar scenarioOpp.node[14].netw 	"Successful: # BundleReceived" 	0
scalar scenarioOpp.node[14].netw 	"Successful: # AckSent" 	0
scalar scenarioOpp.node[14].netw 	"Successful: # AckReceived" 	0
scalar scenarioOpp.node[14].netw 	"Successful: # PredictionsSent" 	12
scalar scenarioOpp.node[14].netw 	"Successful: # PredictionsReceived" 	17
statistic scenarioOpp.node[14].netw 	"Successful: DurationStats"
field count 3
field mean 116.66666666667
field stddev 166.56630311481
field sum 350
field sqrsum 96322
field min 20
field max 309
bin	-INF	0
bin	-124.5	0
bin	-105.23333333333	0
bin	-85.966666666667	0
bin	-66.7	0
bin	-47.433333333333	0
bin	-28.166666666667	0
bin	-8.9	0
bin	10.366666666667	2
bin	29.633333333333	0
bin	48.9	0
bin	68.166666666667	0
bin	87.433333333333	0
bin	106.7	0
bin	125.96666666667	0
bin	145.23333333333	0
bin	164.5	0
bin	183.76666666667	0
bin	203.03333333333	0
bin	222.3	0
bin	241.56666666667	0
bin	260.83333333333	0
bin	280.1	0
bin	299.36666666667	1
bin	318.63333333333	0
bin	337.9	0
bin	357.16666666667	0
bin	376.43333333333	0
bin	395.7	0
bin	414.96666666667	0
bin	434.23333333333	0
bin	453.5	0
scalar scenarioOpp.node[14].netw 	"Failed: # nbrContact" 	287
scalar scenarioOpp.node[14].netw 	"Failed: # nbrToDiscard" 	1
scalar scenarioOpp.node[14].netw 	"Failed: % repeated" 	42.508710801394
scalar scenarioOpp.node[14].netw 	"Failed: # L3Sent" 	1582
scalar scenarioOpp.node[14].netw 	"Failed: # L3Received" 	1333
scalar scenarioOpp.node[14].netw 	"Failed: # BundleSent" 	837
scalar scenarioOpp.node[14].netw 	"Failed: # BundleReceived" 	540
scalar scenarioOpp.node[14].netw 	"Failed: # AckSent" 	133675
scalar scenarioOpp.node[14].netw 	"Failed: # AckReceived" 	131384
scalar scenarioOpp.node[14].netw 	"Failed: # PredictionsSent" 	51438
scalar scenarioOpp.node[14].netw 	"Failed: # PredictionsReceived" 	40616
statistic scenarioOpp.node[14].netw 	"Failed: DurationStats"
field count 287
field mean 16.219512195122
field stddev 39.706051516538
field sum 4655
field sqrsum 526401
field min 0
field max 458
bin	-INF	0
bin	-229	0
bin	-198.46666666667	0
bin	-167.93333333333	0
bin	-137.4	0
bin	-106.86666666667	0
bin	-76.333333333333	0
bin	-45.8	0
bin	-15.266666666667	248
bin	15.266666666667	30
bin	45.8	0
bin	76.333333333333	0
bin	106.86666666667	0
bin	137.4	5
bin	167.93333333333	2
bin	198.46666666667	0
bin	229	0
bin	259.53333333333	0
bin	290.06666666667	1
bin	320.6	0
bin	351.13333333333	0
bin	381.66666666667	0
bin	412.2	0
bin	442.73333333333	1
bin	473.26666666667	0
bin	503.8	0
bin	534.33333333333	0
bin	564.86666666667	0
bin	595.4	0
bin	625.93333333333	0
bin	656.46666666667	0
bin	687	0
statistic scenarioOpp.node[14].netw 	"Histogram for max nbr repeated contact"
field count 69
field mean 1.7536231884058
field stddev 1.5849085806021
field sum 121
field sqrsum 383
field min 1
field max 9
attr type  int
bin	-INF	0
bin	-3	0
bin	-2	0
bin	-1	0
bin	0	0
bin	1	45
bin	2	15
bin	3	3
bin	4	2
bin	5	1
bin	6	0
bin	7	1
bin	8	1
bin	9	1
bin	10	0
bin	11	0
bin	12	0
bin	13	0
scalar scenarioOpp.node[14].netw 	"Bars for #repeated 1" 	69
scalar scenarioOpp.node[14].netw 	"Bars for #repeated 2" 	24
scalar scenarioOpp.node[14].netw 	"Bars for #repeated 3" 	9
scalar scenarioOpp.node[14].netw 	"Bars for #repeated 4" 	6
scalar scenarioOpp.node[14].netw 	"Bars for #repeated 5" 	13
scalar scenarioOpp.node[14].netw 	"Contact CDF LQ1 #repeated 1" 	4
scalar scenarioOpp.node[14].netw 	"Contact CDF G1LQ5 #repeated 1" 	0
scalar scenarioOpp.node[14].netw 	"Contact CDF G5LQ20 #repeated 1" 	58
scalar scenarioOpp.node[14].netw 	"Contact CDF G20LQ50 #repeated 1" 	4
scalar scenarioOpp.node[14].netw 	"Contact CDF G50LQ100 #repeated 1" 	0
scalar scenarioOpp.node[14].netw 	"Contact CDF G100LQ500 #repeated 1" 	0
scalar scenarioOpp.node[14].netw 	"Contact CDF G500 #repeated 1" 	0
scalar scenarioOpp.node[14].netw 	"Contact CDF LQ1 #repeated 2" 	5
scalar scenarioOpp.node[14].netw 	"Contact CDF G1LQ5 #repeated 2" 	0
scalar scenarioOpp.node[14].netw 	"Contact CDF G5LQ20 #repeated 2" 	15
scalar scenarioOpp.node[14].netw 	"Contact CDF G20LQ50 #repeated 2" 	3
scalar scenarioOpp.node[14].netw 	"Contact CDF G50LQ100 #repeated 2" 	0
scalar scenarioOpp.node[14].netw 	"Contact CDF G100LQ500 #repeated 2" 	0
scalar scenarioOpp.node[14].netw 	"Contact CDF G500 #repeated 2" 	0
scalar scenarioOpp.node[14].netw 	"Contact CDF LQ1 #repeated 3" 	4
scalar scenarioOpp.node[14].netw 	"Contact CDF G1LQ5 #repeated 3" 	1
scalar scenarioOpp.node[14].netw 	"Contact CDF G5LQ20 #repeated 3" 	4
scalar scenarioOpp.node[14].netw 	"Contact CDF G20LQ50 #repeated 3" 	0
scalar scenarioOpp.node[14].netw 	"Contact CDF G50LQ100 #repeated 3" 	0
scalar scenarioOpp.node[14].netw 	"Contact CDF G100LQ500 #repeated 3" 	0
scalar scenarioOpp.node[14].netw 	"Contact CDF G500 #repeated 3" 	0
scalar scenarioOpp.node[14].netw 	"Contact CDF LQ1 #repeated 4" 	4
scalar scenarioOpp.node[14].netw 	"Contact CDF G1LQ5 #repeated 4" 	0
scalar scenarioOpp.node[14].netw 	"Contact CDF G5LQ20 #repeated 4" 	1
scalar scenarioOpp.node[14].netw 	"Contact CDF G20LQ50 #repeated 4" 	1
scalar scenarioOpp.node[14].netw 	"Contact CDF G50LQ100 #repeated 4" 	0
scalar scenarioOpp.node[14].netw 	"Contact CDF G100LQ500 #repeated 4" 	0
scalar scenarioOpp.node[14].netw 	"Contact CDF G500 #repeated 4" 	0
scalar scenarioOpp.node[14].netw 	"Contact CDF LQ1 #repeated 5" 	7
scalar scenarioOpp.node[14].netw 	"Contact CDF G1LQ5 #repeated 5" 	0
scalar scenarioOpp.node[14].netw 	"Contact CDF G5LQ20 #repeated 5" 	6
scalar scenarioOpp.node[14].netw 	"Contact CDF G20LQ50 #repeated 5" 	0
scalar scenarioOpp.node[14].netw 	"Contact CDF G50LQ100 #repeated 5" 	0
scalar scenarioOpp.node[14].netw 	"Contact CDF G100LQ500 #repeated 5" 	0
scalar scenarioOpp.node[14].netw 	"Contact CDF G500 #repeated 5" 	0
scalar scenarioOpp.node[14].netw 	"InterContact CDF LQ1 #repeated 1" 	4
scalar scenarioOpp.node[14].netw 	"InterContact CDF G1LQ5 #repeated 1" 	0
scalar scenarioOpp.node[14].netw 	"InterContact CDF G5LQ20 #repeated 1" 	0
scalar scenarioOpp.node[14].netw 	"InterContact CDF G20LQ50 #repeated 1" 	0
scalar scenarioOpp.node[14].netw 	"InterContact CDF G50LQ100 #repeated 1" 	0
scalar scenarioOpp.node[14].netw 	"InterContact CDF G100LQ500 #repeated 1" 	0
scalar scenarioOpp.node[14].netw 	"InterContact CDF G500 #repeated 1" 	40
scalar scenarioOpp.node[14].netw 	"InterContact CDF LQ1 #repeated 2" 	4
scalar scenarioOpp.node[14].netw 	"InterContact CDF G1LQ5 #repeated 2" 	0
scalar scenarioOpp.node[14].netw 	"InterContact CDF G5LQ20 #repeated 2" 	0
scalar scenarioOpp.node[14].netw 	"InterContact CDF G20LQ50 #repeated 2" 	0
scalar scenarioOpp.node[14].netw 	"InterContact CDF G50LQ100 #repeated 2" 	0
scalar scenarioOpp.node[14].netw 	"InterContact CDF G100LQ500 #repeated 2" 	0
scalar scenarioOpp.node[14].netw 	"InterContact CDF G500 #repeated 2" 	13
scalar scenarioOpp.node[14].netw 	"InterContact CDF LQ1 #repeated 3" 	4
scalar scenarioOpp.node[14].netw 	"InterContact CDF G1LQ5 #repeated 3" 	0
scalar scenarioOpp.node[14].netw 	"InterContact CDF G5LQ20 #repeated 3" 	0
scalar scenarioOpp.node[14].netw 	"InterContact CDF G20LQ50 #repeated 3" 	0
scalar scenarioOpp.node[14].netw 	"InterContact CDF G50LQ100 #repeated 3" 	1
scalar scenarioOpp.node[14].netw 	"InterContact CDF G100LQ500 #repeated 3" 	0
scalar scenarioOpp.node[14].netw 	"InterContact CDF G500 #repeated 3" 	3
scalar scenarioOpp.node[14].netw 	"InterContact CDF LQ1 #repeated 4" 	5
scalar scenarioOpp.node[14].netw 	"InterContact CDF G1LQ5 #repeated 4" 	0
scalar scenarioOpp.node[14].netw 	"InterContact CDF G5LQ20 #repeated 4" 	0
scalar scenarioOpp.node[14].netw 	"InterContact CDF G20LQ50 #repeated 4" 	0
scalar scenarioOpp.node[14].netw 	"InterContact CDF G50LQ100 #repeated 4" 	0
scalar scenarioOpp.node[14].netw 	"InterContact CDF G100LQ500 #repeated 4" 	0
scalar scenarioOpp.node[14].netw 	"InterContact CDF G500 #repeated 4" 	0
scalar scenarioOpp.node[14].netw 	"InterContact CDF LQ1 #repeated 5" 	7
scalar scenarioOpp.node[14].netw 	"InterContact CDF G1LQ5 #repeated 5" 	0
scalar scenarioOpp.node[14].netw 	"InterContact CDF G5LQ20 #repeated 5" 	0
scalar scenarioOpp.node[14].netw 	"InterContact CDF G20LQ50 #repeated 5" 	0
scalar scenarioOpp.node[14].netw 	"InterContact CDF G50LQ100 #repeated 5" 	1
scalar scenarioOpp.node[14].netw 	"InterContact CDF G100LQ500 #repeated 5" 	0
scalar scenarioOpp.node[14].netw 	"InterContact CDF G500 #repeated 5" 	2
statistic scenarioOpp.node[14].netw 	"Histogram for total contact duration"
field count 69
field mean 25.376811594203
field stddev 38.284577392929
field sum 1751
field sqrsum 144103
field min 0
field max 175
attr type  int
bin	-INF	0
bin	-88	0
bin	-86	0
bin	-84	0
bin	-82	0
bin	-80	0
bin	-78	0
bin	-76	0
bin	-74	0
bin	-72	0
bin	-70	0
bin	-68	0
bin	-66	0
bin	-64	0
bin	-62	0
bin	-60	0
bin	-58	0
bin	-56	0
bin	-54	0
bin	-52	0
bin	-50	0
bin	-48	0
bin	-46	0
bin	-44	0
bin	-42	0
bin	-40	0
bin	-38	0
bin	-36	0
bin	-34	0
bin	-32	0
bin	-30	0
bin	-28	0
bin	-26	0
bin	-24	0
bin	-22	0
bin	-20	0
bin	-18	0
bin	-16	0
bin	-14	0
bin	-12	0
bin	-10	0
bin	-8	0
bin	-6	0
bin	-4	0
bin	-2	0
bin	0	1
bin	2	0
bin	4	0
bin	6	1
bin	8	20
bin	10	15
bin	12	1
bin	14	3
bin	16	1
bin	18	10
bin	20	5
bin	22	0
bin	24	0
bin	26	1
bin	28	0
bin	30	0
bin	32	1
bin	34	1
bin	36	1
bin	38	0
bin	40	0
bin	42	1
bin	44	0
bin	46	1
bin	48	0
bin	50	0
bin	52	0
bin	54	0
bin	56	0
bin	58	0
bin	60	0
bin	62	0
bin	64	0
bin	66	0
bin	68	0
bin	70	0
bin	72	1
bin	74	0
bin	76	0
bin	78	0
bin	80	0
bin	82	0
bin	84	0
bin	86	0
bin	88	0
bin	90	1
bin	92	0
bin	94	0
bin	96	0
bin	98	0
bin	100	0
bin	102	0
bin	104	0
bin	106	0
bin	108	0
bin	110	0
bin	112	0
bin	114	0
bin	116	0
bin	118	0
bin	120	0
bin	122	0
bin	124	0
bin	126	0
bin	128	0
bin	130	0
bin	132	0
bin	134	0
bin	136	0
bin	138	0
bin	140	0
bin	142	0
bin	144	0
bin	146	0
bin	148	0
bin	150	0
bin	152	0
bin	154	0
bin	156	0
bin	158	1
bin	160	0
bin	162	0
bin	164	0
bin	166	0
bin	168	2
bin	170	0
bin	172	0
bin	174	1
bin	176	0
bin	178	0
bin	180	0
bin	182	0
bin	184	0
bin	186	0
bin	188	0
bin	190	0
bin	192	0
bin	194	0
bin	196	0
bin	198	0
bin	200	0
bin	202	0
bin	204	0
bin	206	0
bin	208	0
bin	210	0
bin	212	0
bin	214	0
bin	216	0
bin	218	0
bin	220	0
bin	222	0
bin	224	0
bin	226	0
bin	228	0
bin	230	0
bin	232	0
bin	234	0
bin	236	0
bin	238	0
bin	240	0
bin	242	0
bin	244	0
bin	246	0
bin	248	0
bin	250	0
bin	252	0
bin	254	0
bin	256	0
bin	258	0
bin	260	0
bin	262	0
bin	264	0
statistic scenarioOpp.node[14].netw 	"Histogram for total interContact duration"
field count 69
field mean 1115.5217391304
field stddev 744.39068270032
field sum 76971
field sqrsum 123542813
field min 127
field max 2806
attr type  int
bin	-INF	0
bin	-1220	0
bin	-1193	0
bin	-1166	0
bin	-1139	0
bin	-1112	0
bin	-1085	0
bin	-1058	0
bin	-1031	0
bin	-1004	0
bin	-977	0
bin	-950	0
bin	-923	0
bin	-896	0
bin	-869	0
bin	-842	0
bin	-815	0
bin	-788	0
bin	-761	0
bin	-734	0
bin	-707	0
bin	-680	0
bin	-653	0
bin	-626	0
bin	-599	0
bin	-572	0
bin	-545	0
bin	-518	0
bin	-491	0
bin	-464	0
bin	-437	0
bin	-410	0
bin	-383	0
bin	-356	0
bin	-329	0
bin	-302	0
bin	-275	0
bin	-248	0
bin	-221	0
bin	-194	0
bin	-167	0
bin	-140	0
bin	-113	0
bin	-86	0
bin	-59	0
bin	-32	0
bin	-5	0
bin	22	0
bin	49	0
bin	76	0
bin	103	1
bin	130	0
bin	157	0
bin	184	0
bin	211	0
bin	238	0
bin	265	2
bin	292	0
bin	319	0
bin	346	0
bin	373	0
bin	400	0
bin	427	14
bin	454	0
bin	481	0
bin	508	0
bin	535	0
bin	562	2
bin	589	5
bin	616	0
bin	643	0
bin	670	1
bin	697	0
bin	724	4
bin	751	0
bin	778	0
bin	805	0
bin	832	0
bin	859	8
bin	886	2
bin	913	0
bin	940	0
bin	967	0
bin	994	1
bin	1021	7
bin	1048	0
bin	1075	0
bin	1102	0
bin	1129	0
bin	1156	1
bin	1183	1
bin	1210	0
bin	1237	0
bin	1264	0
bin	1291	0
bin	1318	0
bin	1345	0
bin	1372	0
bin	1399	0
bin	1426	0
bin	1453	2
bin	1480	0
bin	1507	0
bin	1534	0
bin	1561	0
bin	1588	3
bin	1615	1
bin	1642	0
bin	1669	0
bin	1696	0
bin	1723	0
bin	1750	1
bin	1777	0
bin	1804	0
bin	1831	0
bin	1858	0
bin	1885	0
bin	1912	0
bin	1939	0
bin	1966	0
bin	1993	0
bin	2020	0
bin	2047	2
bin	2074	0
bin	2101	0
bin	2128	0
bin	2155	0
bin	2182	0
bin	2209	0
bin	2236	0
bin	2263	0
bin	2290	0
bin	2317	0
bin	2344	2
bin	2371	2
bin	2398	0
bin	2425	0
bin	2452	0
bin	2479	1
bin	2506	1
bin	2533	0
bin	2560	0
bin	2587	1
bin	2614	2
bin	2641	1
bin	2668	0
bin	2695	0
bin	2722	0
bin	2749	0
bin	2776	0
bin	2803	1
bin	2830	0
bin	2857	0
bin	2884	0
bin	2911	0
bin	2938	0
bin	2965	0
bin	2992	0
bin	3019	0
bin	3046	0
bin	3073	0
bin	3100	0
bin	3127	0
bin	3154	0
bin	3181	0
bin	3208	0
bin	3235	0
bin	3262	0
bin	3289	0
bin	3316	0
bin	3343	0
bin	3370	0
bin	3397	0
bin	3424	0
bin	3451	0
bin	3478	0
bin	3505	0
bin	3532	0
bin	3559	0
bin	3586	0
bin	3613	0
bin	3640	0
bin	3667	0
bin	3694	0
bin	3721	0
bin	3748	0
bin	3775	0
bin	3802	0
bin	3829	0
bin	3856	0
bin	3883	0
bin	3910	0
bin	3937	0
bin	3964	0
bin	3991	0
bin	4018	0
bin	4045	0
bin	4072	0
bin	4099	0
bin	4126	0
bin	4153	0
scalar scenarioOpp.node[14].mobility 	Community 	0
scalar scenarioOpp.node[140].appl 	"# Bundle Sent" 	0
scalar scenarioOpp.node[140].appl 	"# Bundle Received" 	0
scalar scenarioOpp.node[140].netw 	"# L3Sent" 	978
scalar scenarioOpp.node[140].netw 	"# L3Received" 	944
scalar scenarioOpp.node[140].netw 	"# of Contacts" 	277
scalar scenarioOpp.node[140].netw 	"# of InterContacts" 	141
scalar scenarioOpp.node[140].netw 	"Global: # nbrContact" 	277
scalar scenarioOpp.node[140].netw 	"Global: # nbrToDiscard" 	1
scalar scenarioOpp.node[140].netw 	"Global: % repeated" 	51.263537906137
scalar scenarioOpp.node[140].netw 	"Global: # L3Sent" 	978
scalar scenarioOpp.node[140].netw 	"Global: # L3Received" 	944
scalar scenarioOpp.node[140].netw 	"Global: # BundleSent" 	360
scalar scenarioOpp.node[140].netw 	"Global: # BundleReceived" 	345
scalar scenarioOpp.node[140].netw 	"Global: # AckSent" 	116750
scalar scenarioOpp.node[140].netw 	"Global: # AckReceived" 	121633
scalar scenarioOpp.node[140].netw 	"Global: # PredictionsSent" 	60342
scalar scenarioOpp.node[140].netw 	"Global: # PredictionsReceived" 	34473
statistic scenarioOpp.node[140].netw 	"Global: DurationStats"
field count 277
field mean 12.472924187726
field stddev 29.253827132965
field sum 3455
field sqrsum 279291
field min 0
field max 257
bin	-INF	0
bin	-128.5	0
bin	-111.36666666667	0
bin	-94.233333333333	0
bin	-77.1	0
bin	-59.966666666667	0
bin	-42.833333333333	0
bin	-25.7	0
bin	-8.5666666666667	88
bin	8.5666666666667	179
bin	25.7	1
bin	42.833333333333	0
bin	59.966666666667	0
bin	77.1	1
bin	94.233333333333	0
bin	111.36666666667	0
bin	128.5	0
bin	145.63333333333	5
bin	162.76666666667	2
bin	179.9	0
bin	197.03333333333	0
bin	214.16666666667	0
bin	231.3	0
bin	248.43333333333	1
bin	265.56666666667	0
bin	282.7	0
bin	299.83333333333	0
bin	316.96666666667	0
bin	334.1	0
bin	351.23333333333	0
bin	368.36666666667	0
bin	385.5	0
scalar scenarioOpp.node[140].netw 	"Successful: # nbrContact" 	0
scalar scenarioOpp.node[140].netw 	"Successful: # nbrToDiscard" 	0
scalar scenarioOpp.node[140].netw 	"Successful: # L3Sent" 	0
scalar scenarioOpp.node[140].netw 	"Successful: # L3Received" 	0
scalar scenarioOpp.node[140].netw 	"Successful: # BundleSent" 	0
scalar scenarioOpp.node[140].netw 	"Successful: # BundleReceived" 	0
scalar scenarioOpp.node[140].netw 	"Successful: # AckSent" 	0
scalar scenarioOpp.node[140].netw 	"Successful: # AckReceived" 	0
scalar scenarioOpp.node[140].netw 	"Successful: # PredictionsSent" 	0
scalar scenarioOpp.node[140].netw 	"Successful: # PredictionsReceived" 	0
statistic scenarioOpp.node[140].netw 	"Successful: DurationStats"
field count 0
field mean -nan
field stddev -nan
field sum 0
field sqrsum 0
field min -nan
field max -nan
bin	-INF	0
bin	-0.5	0
bin	-0.46666666666667	0
bin	-0.43333333333333	0
bin	-0.4	0
bin	-0.36666666666667	0
bin	-0.33333333333333	0
bin	-0.3	0
bin	-0.26666666666667	0
bin	-0.23333333333333	0
bin	-0.2	0
bin	-0.16666666666667	0
bin	-0.13333333333333	0
bin	-0.1	0
bin	-0.066666666666667	0
bin	-0.033333333333333	0
bin	0	0
bin	0.033333333333333	0
bin	0.066666666666667	0
bin	0.1	0
bin	0.13333333333333	0
bin	0.16666666666667	0
bin	0.2	0
bin	0.23333333333333	0
bin	0.26666666666667	0
bin	0.3	0
bin	0.33333333333333	0
bin	0.36666666666667	0
bin	0.4	0
bin	0.43333333333333	0
bin	0.46666666666667	0
bin	0.5	0
scalar scenarioOpp.node[140].netw 	"Failed: # nbrContact" 	277
scalar scenarioOpp.node[140].netw 	"Failed: # nbrToDiscard" 	1
scalar scenarioOpp.node[140].netw 	"Failed: % repeated" 	51.263537906137
scalar scenarioOpp.node[140].netw 	"Failed: # L3Sent" 	978
scalar scenarioOpp.node[140].netw 	"Failed: # L3Received" 	944
scalar scenarioOpp.node[140].netw 	"Failed: # BundleSent" 	360
scalar scenarioOpp.node[140].netw 	"Failed: # BundleReceived" 	345
scalar scenarioOpp.node[140].netw 	"Failed: # AckSent" 	116750
scalar scenarioOpp.node[140].netw 	"Failed: # AckReceived" 	121633
scalar scenarioOpp.node[140].netw 	"Failed: # PredictionsSent" 	60342
scalar scenarioOpp.node[140].netw 	"Failed: # PredictionsReceived" 	34473
statistic scenarioOpp.node[140].netw 	"Failed: DurationStats"
field count 277
field mean 12.472924187726
field stddev 29.253827132965
field sum 3455
field sqrsum 279291
field min 0
field max 257
bin	-INF	0
bin	-128.5	0
bin	-111.36666666667	0
bin	-94.233333333333	0
bin	-77.1	0
bin	-59.966666666667	0
bin	-42.833333333333	0
bin	-25.7	0
bin	-8.5666666666667	88
bin	8.5666666666667	179
bin	25.7	1
bin	42.833333333333	0
bin	59.966666666667	0
bin	77.1	1
bin	94.233333333333	0
bin	111.36666666667	0
bin	128.5	0
bin	145.63333333333	5
bin	162.76666666667	2
bin	179.9	0
bin	197.03333333333	0
bin	214.16666666667	0
bin	231.3	0
bin	248.43333333333	1
bin	265.56666666667	0
bin	282.7	0
bin	299.83333333333	0
bin	316.96666666667	0
bin	334.1	0
bin	351.23333333333	0
bin	368.36666666667	0
bin	385.5	0
statistic scenarioOpp.node[140].netw 	"Histogram for max nbr repeated contact"
field count 46
field mean 3.0652173913043
field stddev 9.2793730006409
field sum 141
field sqrsum 4307
field min 1
field max 64
attr type  int
bin	-INF	0
bin	-31	0
bin	-30	0
bin	-29	0
bin	-28	0
bin	-27	0
bin	-26	0
bin	-25	0
bin	-24	0
bin	-23	0
bin	-22	0
bin	-21	0
bin	-20	0
bin	-19	0
bin	-18	0
bin	-17	0
bin	-16	0
bin	-15	0
bin	-14	0
bin	-13	0
bin	-12	0
bin	-11	0
bin	-10	0
bin	-9	0
bin	-8	0
bin	-7	0
bin	-6	0
bin	-5	0
bin	-4	0
bin	-3	0
bin	-2	0
bin	-1	0
bin	0	0
bin	1	30
bin	2	8
bin	3	2
bin	4	2
bin	5	2
bin	6	0
bin	7	1
bin	8	0
bin	9	0
bin	10	0
bin	11	0
bin	12	0
bin	13	0
bin	14	0
bin	15	0
bin	16	0
bin	17	0
bin	18	0
bin	19	0
bin	20	0
bin	21	0
bin	22	0
bin	23	0
bin	24	0
bin	25	0
bin	26	0
bin	27	0
bin	28	0
bin	29	0
bin	30	0
bin	31	0
bin	32	0
bin	33	0
bin	34	0
bin	35	0
bin	36	0
bin	37	0
bin	38	0
bin	39	0
bin	40	0
bin	41	0
bin	42	0
bin	43	0
bin	44	0
bin	45	0
bin	46	0
bin	47	0
bin	48	0
bin	49	0
bin	50	0
bin	51	0
bin	52	0
bin	53	0
bin	54	0
bin	55	0
bin	56	0
bin	57	0
bin	58	0
bin	59	0
bin	60	0
bin	61	0
bin	62	0
bin	63	0
bin	64	1
bin	65	0
bin	66	0
bin	67	0
bin	68	0
bin	69	0
bin	70	0
bin	71	0
bin	72	0
bin	73	0
bin	74	0
bin	75	0
bin	76	0
bin	77	0
bin	78	0
bin	79	0
bin	80	0
bin	81	0
bin	82	0
bin	83	0
bin	84	0
bin	85	0
bin	86	0
bin	87	0
bin	88	0
bin	89	0
bin	90	0
bin	91	0
bin	92	0
bin	93	0
bin	94	0
bin	95	0
bin	96	0
scalar scenarioOpp.node[140].netw 	"Bars for #repeated 1" 	46
scalar scenarioOpp.node[140].netw 	"Bars for #repeated 2" 	16
scalar scenarioOpp.node[140].netw 	"Bars for #repeated 3" 	8
scalar scenarioOpp.node[140].netw 	"Bars for #repeated 4" 	6
scalar scenarioOpp.node[140].netw 	"Bars for #repeated 5" 	65
scalar scenarioOpp.node[140].netw 	"Contact CDF LQ1 #repeated 1" 	4
scalar scenarioOpp.node[140].netw 	"Contact CDF G1LQ5 #repeated 1" 	1
scalar scenarioOpp.node[140].netw 	"Contact CDF G5LQ20 #repeated 1" 	37
scalar scenarioOpp.node[140].netw 	"Contact CDF G20LQ50 #repeated 1" 	0
scalar scenarioOpp.node[140].netw 	"Contact CDF G50LQ100 #repeated 1" 	1
scalar scenarioOpp.node[140].netw 	"Contact CDF G100LQ500 #repeated 1" 	0
scalar scenarioOpp.node[140].netw 	"Contact CDF G500 #repeated 1" 	0
scalar scenarioOpp.node[140].netw 	"Contact CDF LQ1 #repeated 2" 	4
scalar scenarioOpp.node[140].netw 	"Contact CDF G1LQ5 #repeated 2" 	2
scalar scenarioOpp.node[140].netw 	"Contact CDF G5LQ20 #repeated 2" 	9
scalar scenarioOpp.node[140].netw 	"Contact CDF G20LQ50 #repeated 2" 	1
scalar scenarioOpp.node[140].netw 	"Contact CDF G50LQ100 #repeated 2" 	0
scalar scenarioOpp.node[140].netw 	"Contact CDF G100LQ500 #repeated 2" 	0
scalar scenarioOpp.node[140].netw 	"Contact CDF G500 #repeated 2" 	0
scalar scenarioOpp.node[140].netw 	"Contact CDF LQ1 #repeated 3" 	5
scalar scenarioOpp.node[140].netw 	"Contact CDF G1LQ5 #repeated 3" 	0
scalar scenarioOpp.node[140].netw 	"Contact CDF G5LQ20 #repeated 3" 	3
scalar scenarioOpp.node[140].netw 	"Contact CDF G20LQ50 #repeated 3" 	0
scalar scenarioOpp.node[140].netw 	"Contact CDF G50LQ100 #repeated 3" 	0
scalar scenarioOpp.node[140].netw 	"Contact CDF G100LQ500 #repeated 3" 	0
scalar scenarioOpp.node[140].netw 	"Contact CDF G500 #repeated 3" 	0
scalar scenarioOpp.node[140].netw 	"Contact CDF LQ1 #repeated 4" 	3
scalar scenarioOpp.node[140].netw 	"Contact CDF G1LQ5 #repeated 4" 	0
scalar scenarioOpp.node[140].netw 	"Contact CDF G5LQ20 #repeated 4" 	2
scalar scenarioOpp.node[140].netw 	"Contact CDF G20LQ50 #repeated 4" 	0
scalar scenarioOpp.node[140].netw 	"Contact CDF G50LQ100 #repeated 4" 	0
scalar scenarioOpp.node[140].netw 	"Contact CDF G100LQ500 #repeated 4" 	0
scalar scenarioOpp.node[140].netw 	"Contact CDF G500 #repeated 4" 	0
scalar scenarioOpp.node[140].netw 	"Contact CDF LQ1 #repeated 5" 	61
scalar scenarioOpp.node[140].netw 	"Contact CDF G1LQ5 #repeated 5" 	0
scalar scenarioOpp.node[140].netw 	"Contact CDF G5LQ20 #repeated 5" 	4
scalar scenarioOpp.node[140].netw 	"Contact CDF G20LQ50 #repeated 5" 	0
scalar scenarioOpp.node[140].netw 	"Contact CDF G50LQ100 #repeated 5" 	0
scalar scenarioOpp.node[140].netw 	"Contact CDF G100LQ500 #repeated 5" 	0
scalar scenarioOpp.node[140].netw 	"Contact CDF G500 #repeated 5" 	0
scalar scenarioOpp.node[140].netw 	"InterContact CDF LQ1 #repeated 1" 	2
scalar scenarioOpp.node[140].netw 	"InterContact CDF G1LQ5 #repeated 1" 	0
scalar scenarioOpp.node[140].netw 	"InterContact CDF G5LQ20 #repeated 1" 	0
scalar scenarioOpp.node[140].netw 	"InterContact CDF G20LQ50 #repeated 1" 	0
scalar scenarioOpp.node[140].netw 	"InterContact CDF G50LQ100 #repeated 1" 	1
scalar scenarioOpp.node[140].netw 	"InterContact CDF G100LQ500 #repeated 1" 	0
scalar scenarioOpp.node[140].netw 	"InterContact CDF G500 #repeated 1" 	26
scalar scenarioOpp.node[140].netw 	"InterContact CDF LQ1 #repeated 2" 	6
scalar scenarioOpp.node[140].netw 	"InterContact CDF G1LQ5 #repeated 2" 	0
scalar scenarioOpp.node[140].netw 	"InterContact CDF G5LQ20 #repeated 2" 	0
scalar scenarioOpp.node[140].netw 	"InterContact CDF G20LQ50 #repeated 2" 	0
scalar scenarioOpp.node[140].netw 	"InterContact CDF G50LQ100 #repeated 2" 	1
scalar scenarioOpp.node[140].netw 	"InterContact CDF G100LQ500 #repeated 2" 	0
scalar scenarioOpp.node[140].netw 	"InterContact CDF G500 #repeated 2" 	4
scalar scenarioOpp.node[140].netw 	"InterContact CDF LQ1 #repeated 3" 	6
scalar scenarioOpp.node[140].netw 	"InterContact CDF G1LQ5 #repeated 3" 	0
scalar scenarioOpp.node[140].netw 	"InterContact CDF G5LQ20 #repeated 3" 	0
scalar scenarioOpp.node[140].netw 	"InterContact CDF G20LQ50 #repeated 3" 	0
scalar scenarioOpp.node[140].netw 	"InterContact CDF G50LQ100 #repeated 3" 	0
scalar scenarioOpp.node[140].netw 	"InterContact CDF G100LQ500 #repeated 3" 	0
scalar scenarioOpp.node[140].netw 	"InterContact CDF G500 #repeated 3" 	2
scalar scenarioOpp.node[140].netw 	"InterContact CDF LQ1 #repeated 4" 	3
scalar scenarioOpp.node[140].netw 	"InterContact CDF G1LQ5 #repeated 4" 	0
scalar scenarioOpp.node[140].netw 	"InterContact CDF G5LQ20 #repeated 4" 	0
scalar scenarioOpp.node[140].netw 	"InterContact CDF G20LQ50 #repeated 4" 	0
scalar scenarioOpp.node[140].netw 	"InterContact CDF G50LQ100 #repeated 4" 	1
scalar scenarioOpp.node[140].netw 	"InterContact CDF G100LQ500 #repeated 4" 	0
scalar scenarioOpp.node[140].netw 	"InterContact CDF G500 #repeated 4" 	2
scalar scenarioOpp.node[140].netw 	"InterContact CDF LQ1 #repeated 5" 	62
scalar scenarioOpp.node[140].netw 	"InterContact CDF G1LQ5 #repeated 5" 	0
scalar scenarioOpp.node[140].netw 	"InterContact CDF G5LQ20 #repeated 5" 	0
scalar scenarioOpp.node[140].netw 	"InterContact CDF G20LQ50 #repeated 5" 	0
scalar scenarioOpp.node[140].netw 	"InterContact CDF G50LQ100 #repeated 5" 	1
scalar scenarioOpp.node[140].netw 	"InterContact CDF G100LQ500 #repeated 5" 	0
scalar scenarioOpp.node[140].netw 	"InterContact CDF G500 #repeated 5" 	1
statistic scenarioOpp.node[140].netw 	"Histogram for total contact duration"
field count 46
field mean 26
field stddev 38.808933679416
field sum 1196
field sqrsum 98872
field min 0
field max 161
attr type  int
bin	-INF	0
bin	-81	0
bin	-79	0
bin	-77	0
bin	-75	0
bin	-73	0
bin	-71	0
bin	-69	0
bin	-67	0
bin	-65	0
bin	-63	0
bin	-61	0
bin	-59	0
bin	-57	0
bin	-55	0
bin	-53	0
bin	-51	0
bin	-49	0
bin	-47	0
bin	-45	0
bin	-43	0
bin	-41	0
bin	-39	0
bin	-37	0
bin	-35	0
bin	-33	0
bin	-31	0
bin	-29	0
bin	-27	0
bin	-25	0
bin	-23	0
bin	-21	0
bin	-19	0
bin	-17	0
bin	-15	0
bin	-13	0
bin	-11	0
bin	-9	0
bin	-7	0
bin	-5	0
bin	-3	0
bin	-1	1
bin	1	0
bin	3	0
bin	5	1
bin	7	0
bin	9	22
bin	11	2
bin	13	1
bin	15	0
bin	17	3
bin	19	5
bin	21	1
bin	23	1
bin	25	0
bin	27	1
bin	29	0
bin	31	1
bin	33	0
bin	35	0
bin	37	0
bin	39	1
bin	41	1
bin	43	1
bin	45	0
bin	47	0
bin	49	0
bin	51	0
bin	53	0
bin	55	0
bin	57	0
bin	59	0
bin	61	0
bin	63	0
bin	65	0
bin	67	0
bin	69	0
bin	71	0
bin	73	0
bin	75	0
bin	77	0
bin	79	0
bin	81	0
bin	83	0
bin	85	0
bin	87	0
bin	89	0
bin	91	0
bin	93	0
bin	95	0
bin	97	0
bin	99	1
bin	101	0
bin	103	0
bin	105	0
bin	107	0
bin	109	0
bin	111	0
bin	113	0
bin	115	0
bin	117	0
bin	119	0
bin	121	0
bin	123	0
bin	125	0
bin	127	0
bin	129	0
bin	131	0
bin	133	0
bin	135	0
bin	137	0
bin	139	0
bin	141	0
bin	143	0
bin	145	0
bin	147	0
bin	149	0
bin	151	0
bin	153	0
bin	155	0
bin	157	2
bin	159	0
bin	161	1
bin	163	0
bin	165	0
bin	167	0
bin	169	0
bin	171	0
bin	173	0
bin	175	0
bin	177	0
bin	179	0
bin	181	0
bin	183	0
bin	185	0
bin	187	0
bin	189	0
bin	191	0
bin	193	0
bin	195	0
bin	197	0
bin	199	0
bin	201	0
bin	203	0
bin	205	0
bin	207	0
bin	209	0
bin	211	0
bin	213	0
bin	215	0
bin	217	0
bin	219	0
bin	221	0
bin	223	0
bin	225	0
bin	227	0
bin	229	0
bin	231	0
bin	233	0
bin	235	0
bin	237	0
bin	239	0
bin	241	0
bin	243	0
statistic scenarioOpp.node[140].netw 	"Histogram for total interContact duration"
field count 46
field mean 880.67391304348
field stddev 376.72955547848
field sum 40511
field sqrsum 42063613
field min 5
field max 1621
attr type  int
bin	-INF	0
bin	-810	0
bin	-793	0
bin	-776	0
bin	-759	0
bin	-742	0
bin	-725	0
bin	-708	0
bin	-691	0
bin	-674	0
bin	-657	0
bin	-640	0
bin	-623	0
bin	-606	0
bin	-589	0
bin	-572	0
bin	-555	0
bin	-538	0
bin	-521	0
bin	-504	0
bin	-487	0
bin	-470	0
bin	-453	0
bin	-436	0
bin	-419	0
bin	-402	0
bin	-385	0
bin	-368	0
bin	-351	0
bin	-334	0
bin	-317	0
bin	-300	0
bin	-283	0
bin	-266	0
bin	-249	0
bin	-232	0
bin	-215	0
bin	-198	0
bin	-181	0
bin	-164	0
bin	-147	0
bin	-130	0
bin	-113	0
bin	-96	0
bin	-79	0
bin	-62	0
bin	-45	0
bin	-28	0
bin	-11	1
bin	6	0
bin	23	0
bin	40	0
bin	57	0
bin	74	0
bin	91	0
bin	108	0
bin	125	2
bin	142	0
bin	159	0
bin	176	0
bin	193	0
bin	210	0
bin	227	0
bin	244	0
bin	261	0
bin	278	3
bin	295	0
bin	312	0
bin	329	0
bin	346	0
bin	363	0
bin	380	0
bin	397	0
bin	414	0
bin	431	4
bin	448	0
bin	465	0
bin	482	0
bin	499	0
bin	516	0
bin	533	0
bin	550	0
bin	567	2
bin	584	0
bin	601	0
bin	618	0
bin	635	0
bin	652	0
bin	669	0
bin	686	0
bin	703	0
bin	720	3
bin	737	0
bin	754	0
bin	771	0
bin	788	0
bin	805	0
bin	822	0
bin	839	1
bin	856	1
bin	873	2
bin	890	0
bin	907	0
bin	924	0
bin	941	0
bin	958	0
bin	975	0
bin	992	2
bin	1009	9
bin	1026	0
bin	1043	0
bin	1060	0
bin	1077	0
bin	1094	0
bin	1111	0
bin	1128	2
bin	1145	3
bin	1162	6
bin	1179	0
bin	1196	0
bin	1213	1
bin	1230	0
bin	1247	0
bin	1264	1
bin	1281	0
bin	1298	1
bin	1315	0
bin	1332	0
bin	1349	0
bin	1366	0
bin	1383	0
bin	1400	0
bin	1417	0
bin	1434	0
bin	1451	1
bin	1468	0
bin	1485	0
bin	1502	0
bin	1519	0
bin	1536	0
bin	1553	0
bin	1570	0
bin	1587	0
bin	1604	0
bin	1621	1
bin	1638	0
bin	1655	0
bin	1672	0
bin	1689	0
bin	1706	0
bin	1723	0
bin	1740	0
bin	1757	0
bin	1774	0
bin	1791	0
bin	1808	0
bin	1825	0
bin	1842	0
bin	1859	0
bin	1876	0
bin	1893	0
bin	1910	0
bin	1927	0
bin	1944	0
bin	1961	0
bin	1978	0
bin	1995	0
bin	2012	0
bin	2029	0
bin	2046	0
bin	2063	0
bin	2080	0
bin	2097	0
bin	2114	0
bin	2131	0
bin	2148	0
bin	2165	0
bin	2182	0
bin	2199	0
bin	2216	0
bin	2233	0
bin	2250	0
bin	2267	0
bin	2284	0
bin	2301	0
bin	2318	0
bin	2335	0
bin	2352	0
bin	2369	0
bin	2386	0
bin	2403	0
bin	2420	0
bin	2437	0
scalar scenarioOpp.node[140].mobility 	Community 	0
scalar scenarioOpp.node[154].appl 	"# Bundle Sent" 	0
scalar scenarioOpp.node[154].appl 	"# Bundle Received" 	0
scalar scenarioOpp.node[154].netw 	"# L3Sent" 	858
scalar scenarioOpp.node[154].netw 	"# L3Received" 	833
scalar scenarioOpp.node[154].netw 	"# of Contacts" 	265
scalar scenarioOpp.node[154].netw 	"# of InterContacts" 	134
scalar scenarioOpp.node[154].netw 	"Global: # nbrContact" 	265
scalar scenarioOpp.node[154].netw 	"Global: # nbrToDiscard" 	2
scalar scenarioOpp.node[154].netw 	"Global: % repeated" 	50.943396226415
scalar scenarioOpp.node[154].netw 	"Global: # L3Sent" 	858
scalar scenarioOpp.node[154].netw 	"Global: # L3Received" 	833
scalar scenarioOpp.node[154].netw 	"Global: # BundleSent" 	265
scalar scenarioOpp.node[154].netw 	"Global: # BundleReceived" 	269
scalar scenarioOpp.node[154].netw 	"Global: # AckSent" 	117660
scalar scenarioOpp.node[154].netw 	"Global: # AckReceived" 	117779
scalar scenarioOpp.node[154].netw 	"Global: # PredictionsSent" 	53555
scalar scenarioOpp.node[154].netw 	"Global: # PredictionsReceived" 	34328
statistic scenarioOpp.node[154].netw 	"Global: DurationStats"
field count 265
field mean 12.060377358491
field stddev 42.173749283707
field sum 3196
field sqrsum 508102
field min 0
field max 613
bin	-INF	0
bin	-80	0
bin	-69.333333333333	0
bin	-58.666666666667	0
bin	-48	0
bin	-37.333333333333	0
bin	-26.666666666667	0
bin	-16	0
bin	-5.3333333333333	80
bin	5.3333333333333	167
bin	16	12
bin	26.666666666667	0
bin	37.333333333333	0
bin	48	0
bin	58.666666666667	0
bin	69.333333333333	0
bin	80	1
bin	90.666666666667	0
bin	101.33333333333	0
bin	112	0
bin	122.66666666667	0
bin	133.33333333333	0
bin	144	0
bin	154.66666666667	4
bin	165.33333333333	0
bin	176	0
bin	186.66666666667	0
bin	197.33333333333	0
bin	208	0
bin	218.66666666667	0
bin	229.33333333333	0
bin	240	1
scalar scenarioOpp.node[154].netw 	"Successful: # nbrContact" 	0
scalar scenarioOpp.node[154].netw 	"Successful: # nbrToDiscard" 	0
scalar scenarioOpp.node[154].netw 	"Successful: # L3Sent" 	0
scalar scenarioOpp.node[154].netw 	"Successful: # L3Received" 	0
scalar scenarioOpp.node[154].netw 	"Successful: # BundleSent" 	0
scalar scenarioOpp.node[154].netw 	"Successful: # BundleReceived" 	0
scalar scenarioOpp.node[154].netw 	"Successful: # AckSent" 	0
scalar scenarioOpp.node[154].netw 	"Successful: # AckReceived" 	0
scalar scenarioOpp.node[154].netw 	"Successful: # PredictionsSent" 	0
scalar scenarioOpp.node[154].netw 	"Successful: # PredictionsReceived" 	0
statistic scenarioOpp.node[154].netw 	"Successful: DurationStats"
field count 0
field mean -nan
field stddev -nan
field sum 0
field sqrsum 0
field min -nan
field max -nan
bin	-INF	0
bin	-0.5	0
bin	-0.46666666666667	0
bin	-0.43333333333333	0
bin	-0.4	0
bin	-0.36666666666667	0
bin	-0.33333333333333	0
bin	-0.3	0
bin	-0.26666666666667	0
bin	-0.23333333333333	0
bin	-0.2	0
bin	-0.16666666666667	0
bin	-0.13333333333333	0
bin	-0.1	0
bin	-0.066666666666667	0
bin	-0.033333333333333	0
bin	0	0
bin	0.033333333333333	0
bin	0.066666666666667	0
bin	0.1	0
bin	0.13333333333333	0
bin	0.16666666666667	0
bin	0.2	0
bin	0.23333333333333	0
bin	0.26666666666667	0
bin	0.3	0
bin	0.33333333333333	0
bin	0.36666666666667	0
bin	0.4	0
bin	0.43333333333333	0
bin	0.46666666666667	0
bin	0.5	0
scalar scenarioOpp.node[154].netw 	"Failed: # nbrContact" 	265
scalar scenarioOpp.node[154].netw 	"Failed: # nbrToDiscard" 	2
scalar scenarioOpp.node[154].netw 	"Failed: % repeated" 	50.943396226415
scalar scenarioOpp.node[154].netw 	"Failed: # L3Sent" 	858
scalar scenarioOpp.node[154].netw 	"Failed: # L3Received" 	833
scalar scenarioOpp.node[154].netw 	"Failed: # BundleSent" 	265
scalar scenarioOpp.node[154].netw 	"Failed: # BundleReceived" 	269
scalar scenarioOpp.node[154].netw 	"Failed: # AckSent" 	117660
scalar scenarioOpp.node[154].netw 	"Failed: # AckReceived" 	117779
scalar scenarioOpp.node[154].netw 	"Failed: # PredictionsSent" 	53555
scalar scenarioOpp.node[154].netw 	"Failed: # PredictionsReceived" 	34328
statistic scenarioOpp.node[154].netw 	"Failed: DurationStats"
field count 265
field mean 12.060377358491
field stddev 42.173749283707
field sum 3196
field sqrsum 508102
field min 0
field max 613
bin	-INF	0
bin	-80	0
bin	-69.333333333333	0
bin	-58.666666666667	0
bin	-48	0
bin	-37.333333333333	0
bin	-26.666666666667	0
bin	-16	0
bin	-5.3333333333333	80
bin	5.3333333333333	167
bin	16	12
bin	26.666666666667	0
bin	37.333333333333	0
bin	48	0
bin	58.666666666667	0
bin	69.333333333333	0
bin	80	1
bin	90.666666666667	0
bin	101.33333333333	0
bin	112	0
bin	122.66666666667	0
bin	133.33333333333	0
bin	144	0
bin	154.66666666667	4
bin	165.33333333333	0
bin	176	0
bin	186.66666666667	0
bin	197.33333333333	0
bin	208	0
bin	218.66666666667	0
bin	229.33333333333	0
bin	240	1
statistic scenarioOpp.node[154].netw 	"Histogram for max nbr repeated contact"
field count 46
field mean 2.9130434782609
field stddev 8.8915092755993
field sum 134
field sqrsum 3948
field min 1
field max 59
attr type  int
bin	-INF	0
bin	-28	0
bin	-27	0
bin	-26	0
bin	-25	0
bin	-24	0
bin	-23	0
bin	-22	0
bin	-21	0
bin	-20	0
bin	-19	0
bin	-18	0
bin	-17	0
bin	-16	0
bin	-15	0
bin	-14	0
bin	-13	0
bin	-12	0
bin	-11	0
bin	-10	0
bin	-9	0
bin	-8	0
bin	-7	0
bin	-6	0
bin	-5	0
bin	-4	0
bin	-3	0
bin	-2	0
bin	-1	0
bin	0	0
bin	1	38
bin	2	4
bin	3	0
bin	4	1
bin	5	0
bin	6	1
bin	7	0
bin	8	0
bin	9	0
bin	10	0
bin	11	0
bin	12	0
bin	13	0
bin	14	0
bin	15	0
bin	16	0
bin	17	0
bin	18	0
bin	19	1
bin	20	0
bin	21	0
bin	22	0
bin	23	0
bin	24	0
bin	25	0
bin	26	0
bin	27	0
bin	28	0
bin	29	0
bin	30	0
bin	31	0
bin	32	0
bin	33	0
bin	34	0
bin	35	0
bin	36	0
bin	37	0
bin	38	0
bin	39	0
bin	40	0
bin	41	0
bin	42	0
bin	43	0
bin	44	0
bin	45	0
bin	46	0
bin	47	0
bin	48	0
bin	49	0
bin	50	0
bin	51	0
bin	52	0
bin	53	0
bin	54	0
bin	55	0
bin	56	0
bin	57	0
bin	58	0
bin	59	1
bin	60	0
bin	61	0
bin	62	0
bin	63	0
bin	64	0
bin	65	0
bin	66	0
bin	67	0
bin	68	0
bin	69	0
bin	70	0
bin	71	0
bin	72	0
bin	73	0
bin	74	0
bin	75	0
bin	76	0
bin	77	0
bin	78	0
bin	79	0
bin	80	0
bin	81	0
bin	82	0
bin	83	0
bin	84	0
bin	85	0
bin	86	0
bin	87	0
bin	88	0
scalar scenarioOpp.node[154].netw 	"Bars for #repeated 1" 	46
scalar scenarioOpp.node[154].netw 	"Bars for #repeated 2" 	8
scalar scenarioOpp.node[154].netw 	"Bars for #repeated 3" 	4
scalar scenarioOpp.node[154].netw 	"Bars for #repeated 4" 	4
scalar scenarioOpp.node[154].netw 	"Bars for #repeated 5" 	72
scalar scenarioOpp.node[154].netw 	"Contact CDF LQ1 #repeated 1" 	3
scalar scenarioOpp.node[154].netw 	"Contact CDF G1LQ5 #repeated 1" 	0
scalar scenarioOpp.node[154].netw 	"Contact CDF G5LQ20 #repeated 1" 	41
scalar scenarioOpp.node[154].netw 	"Contact CDF G20LQ50 #repeated 1" 	2
scalar scenarioOpp.node[154].netw 	"Contact CDF G50LQ100 #repeated 1" 	0
scalar scenarioOpp.node[154].netw 	"Contact CDF G100LQ500 #repeated 1" 	0
scalar scenarioOpp.node[154].netw 	"Contact CDF G500 #repeated 1" 	0
scalar scenarioOpp.node[154].netw 	"Contact CDF LQ1 #repeated 2" 	2
scalar scenarioOpp.node[154].netw 	"Contact CDF G1LQ5 #repeated 2" 	0
scalar scenarioOpp.node[154].netw 	"Contact CDF G5LQ20 #repeated 2" 	6
scalar scenarioOpp.node[154].netw 	"Contact CDF G20LQ50 #repeated 2" 	0
scalar scenarioOpp.node[154].netw 	"Contact CDF G50LQ100 #repeated 2" 	0
scalar scenarioOpp.node[154].netw 	"Contact CDF G100LQ500 #repeated 2" 	0
scalar scenarioOpp.node[154].netw 	"Contact CDF G500 #repeated 2" 	0
scalar scenarioOpp.node[154].netw 	"Contact CDF LQ1 #repeated 3" 	3
scalar scenarioOpp.node[154].netw 	"Contact CDF G1LQ5 #repeated 3" 	0
scalar scenarioOpp.node[154].netw 	"Contact CDF G5LQ20 #repeated 3" 	1
scalar scenarioOpp.node[154].netw 	"Contact CDF G20LQ50 #repeated 3" 	0
scalar scenarioOpp.node[154].netw 	"Contact CDF G50LQ100 #repeated 3" 	0
scalar scenarioOpp.node[154].netw 	"Contact CDF G100LQ500 #repeated 3" 	0
scalar scenarioOpp.node[154].netw 	"Contact CDF G500 #repeated 3" 	0
scalar scenarioOpp.node[154].netw 	"Contact CDF LQ1 #repeated 4" 	4
scalar scenarioOpp.node[154].netw 	"Contact CDF G1LQ5 #repeated 4" 	0
scalar scenarioOpp.node[154].netw 	"Contact CDF G5LQ20 #repeated 4" 	0
scalar scenarioOpp.node[154].netw 	"Contact CDF G20LQ50 #repeated 4" 	0
scalar scenarioOpp.node[154].netw 	"Contact CDF G50LQ100 #repeated 4" 	0
scalar scenarioOpp.node[154].netw 	"Contact CDF G100LQ500 #repeated 4" 	0
scalar scenarioOpp.node[154].netw 	"Contact CDF G500 #repeated 4" 	0
scalar scenarioOpp.node[154].netw 	"Contact CDF LQ1 #repeated 5" 	67
scalar scenarioOpp.node[154].netw 	"Contact CDF G1LQ5 #repeated 5" 	0
scalar scenarioOpp.node[154].netw 	"Contact CDF G5LQ20 #repeated 5" 	4
scalar scenarioOpp.node[154].netw 	"Contact CDF G20LQ50 #repeated 5" 	0
scalar scenarioOpp.node[154].netw 	"Contact CDF G50LQ100 #repeated 5" 	1
scalar scenarioOpp.node[154].netw 	"Contact CDF G100LQ500 #repeated 5" 	0
scalar scenarioOpp.node[154].netw 	"Contact CDF G500 #repeated 5" 	0
scalar scenarioOpp.node[154].netw 	"InterContact CDF LQ1 #repeated 1" 	2
scalar scenarioOpp.node[154].netw 	"InterContact CDF G1LQ5 #repeated 1" 	0
scalar scenarioOpp.node[154].netw 	"InterContact CDF G5LQ20 #repeated 1" 	0
scalar scenarioOpp.node[154].netw 	"InterContact CDF G20LQ50 #repeated 1" 	0
scalar scenarioOpp.node[154].netw 	"InterContact CDF G50LQ100 #repeated 1" 	2
scalar scenarioOpp.node[154].netw 	"InterContact CDF G100LQ500 #repeated 1" 	0
scalar scenarioOpp.node[154].netw 	"InterContact CDF G500 #repeated 1" 	25
scalar scenarioOpp.node[154].netw 	"InterContact CDF LQ1 #repeated 2" 	3
scalar scenarioOpp.node[154].netw 	"InterContact CDF G1LQ5 #repeated 2" 	0
scalar scenarioOpp.node[154].netw 	"InterContact CDF G5LQ20 #repeated 2" 	0
scalar scenarioOpp.node[154].netw 	"InterContact CDF G20LQ50 #repeated 2" 	0
scalar scenarioOpp.node[154].netw 	"InterContact CDF G50LQ100 #repeated 2" 	0
scalar scenarioOpp.node[154].netw 	"InterContact CDF G100LQ500 #repeated 2" 	0
scalar scenarioOpp.node[154].netw 	"InterContact CDF G500 #repeated 2" 	2
scalar scenarioOpp.node[154].netw 	"InterContact CDF LQ1 #repeated 3" 	3
scalar scenarioOpp.node[154].netw 	"InterContact CDF G1LQ5 #repeated 3" 	0
scalar scenarioOpp.node[154].netw 	"InterContact CDF G5LQ20 #repeated 3" 	0
scalar scenarioOpp.node[154].netw 	"InterContact CDF G20LQ50 #repeated 3" 	0
scalar scenarioOpp.node[154].netw 	"InterContact CDF G50LQ100 #repeated 3" 	0
scalar scenarioOpp.node[154].netw 	"InterContact CDF G100LQ500 #repeated 3" 	0
scalar scenarioOpp.node[154].netw 	"InterContact CDF G500 #repeated 3" 	0
scalar scenarioOpp.node[154].netw 	"InterContact CDF LQ1 #repeated 4" 	3
scalar scenarioOpp.node[154].netw 	"InterContact CDF G1LQ5 #repeated 4" 	0
scalar scenarioOpp.node[154].netw 	"InterContact CDF G5LQ20 #repeated 4" 	0
scalar scenarioOpp.node[154].netw 	"InterContact CDF G20LQ50 #repeated 4" 	0
scalar scenarioOpp.node[154].netw 	"InterContact CDF G50LQ100 #repeated 4" 	1
scalar scenarioOpp.node[154].netw 	"InterContact CDF G100LQ500 #repeated 4" 	0
scalar scenarioOpp.node[154].netw 	"InterContact CDF G500 #repeated 4" 	0
scalar scenarioOpp.node[154].netw 	"InterContact CDF LQ1 #repeated 5" 	68
scalar scenarioOpp.node[154].netw 	"InterContact CDF G1LQ5 #repeated 5" 	0
scalar scenarioOpp.node[154].netw 	"InterContact CDF G5LQ20 #repeated 5" 	0
scalar scenarioOpp.node[154].netw 	"InterContact CDF G20LQ50 #repeated 5" 	0
scalar scenarioOpp.node[154].netw 	"InterContact CDF G50LQ100 #repeated 5" 	2
scalar scenarioOpp.node[154].netw 	"InterContact CDF G100LQ500 #repeated 5" 	0
scalar scenarioOpp.node[154].netw 	"InterContact CDF G500 #repeated 5" 	0
statistic scenarioOpp.node[154].netw 	"Histogram for total contact duration"
field count 46
field mean 14.282608695652
field stddev 12.996859524051
field sum 657
field sqrsum 16985
field min 8
field max 87
attr type  int
bin	-INF	0
bin	-32	0
bin	-31	0
bin	-30	0
bin	-29	0
bin	-28	0
bin	-27	0
bin	-26	0
bin	-25	0
bin	-24	0
bin	-23	0
bin	-22	0
bin	-21	0
bin	-20	0
bin	-19	0
bin	-18	0
bin	-17	0
bin	-16	0
bin	-15	0
bin	-14	0
bin	-13	0
bin	-12	0
bin	-11	0
bin	-10	0
bin	-9	0
bin	-8	0
bin	-7	0
bin	-6	0
bin	-5	0
bin	-4	0
bin	-3	0
bin	-2	0
bin	-1	0
bin	0	0
bin	1	0
bin	2	0
bin	3	0
bin	4	0
bin	5	0
bin	6	0
bin	7	0
bin	8	1
bin	9	26
bin	10	5
bin	11	0
bin	12	2
bin	13	0
bin	14	0
bin	15	1
bin	16	0
bin	17	1
bin	18	1
bin	19	1
bin	20	2
bin	21	1
bin	22	0
bin	23	0
bin	24	1
bin	25	1
bin	26	0
bin	27	0
bin	28	0
bin	29	0
bin	30	0
bin	31	0
bin	32	0
bin	33	0
bin	34	0
bin	35	0
bin	36	1
bin	37	0
bin	38	0
bin	39	1
bin	40	0
bin	41	0
bin	42	0
bin	43	0
bin	44	0
bin	45	0
bin	46	0
bin	47	0
bin	48	0
bin	49	0
bin	50	0
bin	51	0
bin	52	0
bin	53	0
bin	54	0
bin	55	0
bin	56	0
bin	57	0
bin	58	0
bin	59	0
bin	60	0
bin	61	0
bin	62	0
bin	63	0
bin	64	0
bin	65	0
bin	66	0
bin	67	0
bin	68	0
bin	69	0
bin	70	0
bin	71	0
bin	72	0
bin	73	0
bin	74	0
bin	75	0
bin	76	0
bin	77	0
bin	78	0
bin	79	0
bin	80	0
bin	81	0
bin	82	0
bin	83	0
bin	84	0
bin	85	0
bin	86	0
bin	87	1
bin	88	0
bin	89	0
bin	90	0
bin	91	0
bin	92	0
bin	93	0
bin	94	0
bin	95	0
bin	96	0
bin	97	0
bin	98	0
bin	99	0
bin	100	0
bin	101	0
bin	102	0
bin	103	0
bin	104	0
bin	105	0
bin	106	0
bin	107	0
bin	108	0
bin	109	0
bin	110	0
bin	111	0
bin	112	0
bin	113	0
bin	114	0
bin	115	0
bin	116	0
bin	117	0
bin	118	0
bin	119	0
bin	120	0
bin	121	0
bin	122	0
bin	123	0
bin	124	0
bin	125	0
bin	126	0
bin	127	0
statistic scenarioOpp.node[154].netw 	"Histogram for total interContact duration"
field count 46
field mean 540.54347826087
field stddev 339.43185907708
field sum 24865
field sqrsum 18625243
field min 1
field max 1172
attr type  int
bin	-INF	0
bin	-589	0
bin	-577	0
bin	-565	0
bin	-553	0
bin	-541	0
bin	-529	0
bin	-517	0
bin	-505	0
bin	-493	0
bin	-481	0
bin	-469	0
bin	-457	0
bin	-445	0
bin	-433	0
bin	-421	0
bin	-409	0
bin	-397	0
bin	-385	0
bin	-373	0
bin	-361	0
bin	-349	0
bin	-337	0
bin	-325	0
bin	-313	0
bin	-301	0
bin	-289	0
bin	-277	0
bin	-265	0
bin	-253	0
bin	-241	0
bin	-229	0
bin	-217	0
bin	-205	0
bin	-193	0
bin	-181	0
bin	-169	0
bin	-157	0
bin	-145	0
bin	-133	0
bin	-121	0
bin	-109	0
bin	-97	0
bin	-85	0
bin	-73	0
bin	-61	0
bin	-49	0
bin	-37	0
bin	-25	0
bin	-13	0
bin	-1	1
bin	11	0
bin	23	0
bin	35	0
bin	47	0
bin	59	1
bin	71	0
bin	83	0
bin	95	0
bin	107	0
bin	119	0
bin	131	7
bin	143	2
bin	155	0
bin	167	0
bin	179	0
bin	191	0
bin	203	0
bin	215	0
bin	227	0
bin	239	0
bin	251	0
bin	263	0
bin	275	5
bin	287	0
bin	299	0
bin	311	0
bin	323	0
bin	335	0
bin	347	0
bin	359	0
bin	371	0
bin	383	0
bin	395	0
bin	407	1
bin	419	0
bin	431	3
bin	443	0
bin	455	0
bin	467	0
bin	479	0
bin	491	0
bin	503	0
bin	515	0
bin	527	0
bin	539	0
bin	551	0
bin	563	0
bin	575	9
bin	587	1
bin	599	0
bin	611	0
bin	623	0
bin	635	0
bin	647	0
bin	659	0
bin	671	0
bin	683	0
bin	695	0
bin	707	1
bin	719	5
bin	731	2
bin	743	0
bin	755	0
bin	767	0
bin	779	0
bin	791	0
bin	803	0
bin	815	0
bin	827	0
bin	839	0
bin	851	0
bin	863	0
bin	875	0
bin	887	1
bin	899	0
bin	911	0
bin	923	0
bin	935	0
bin	947	0
bin	959	0
bin	971	0
bin	983	0
bin	995	0
bin	1007	0
bin	1019	2
bin	1031	0
bin	1043	0
bin	1055	0
bin	1067	0
bin	1079	0
bin	1091	0
bin	1103	0
bin	1115	0
bin	1127	0
bin	1139	1
bin	1151	1
bin	1163	3
bin	1175	0
bin	1187	0
bin	1199	0
bin	1211	0
bin	1223	0
bin	1235	0
bin	1247	0
bin	1259	0
bin	1271	0
bin	1283	0
bin	1295	0
bin	1307	0
bin	1319	0
bin	1331	0
bin	1343	0
bin	1355	0
bin	1367	0
bin	1379	0
bin	1391	0
bin	1403	0
bin	1415	0
bin	1427	0
bin	1439	0
bin	1451	0
bin	1463	0
bin	1475	0
bin	1487	0
bin	1499	0
bin	1511	0
bin	1523	0
bin	1535	0
bin	1547	0
bin	1559	0
bin	1571	0
bin	1583	0
bin	1595	0
bin	1607	0
bin	1619	0
bin	1631	0
bin	1643	0
bin	1655	0
bin	1667	0
bin	1679	0
bin	1691	0
bin	1703	0
bin	1715	0
bin	1727	0
bin	1739	0
bin	1751	0
bin	1763	0
scalar scenarioOpp.node[154].mobility 	Community 	0
scalar scenarioOpp.node[168].appl 	"# Bundle Sent" 	0
scalar scenarioOpp.node[168].appl 	"# Bundle Received" 	0
scalar scenarioOpp.node[168].netw 	"# L3Sent" 	694
scalar scenarioOpp.node[168].netw 	"# L3Received" 	792
scalar scenarioOpp.node[168].netw 	"# of Contacts" 	173
scalar scenarioOpp.node[168].netw 	"# of InterContacts" 	49
scalar scenarioOpp.node[168].netw 	"Global: # nbrContact" 	173
scalar scenarioOpp.node[168].netw 	"Global: # nbrToDiscard" 	5
scalar scenarioOpp.node[168].netw 	"Global: % repeated" 	28.323699421965
scalar scenarioOpp.node[168].netw 	"Global: # L3Sent" 	694
scalar scenarioOpp.node[168].netw 	"Global: # L3Received" 	792
scalar scenarioOpp.node[168].netw 	"Global: # BundleSent" 	220
scalar scenarioOpp.node[168].netw 	"Global: # BundleReceived" 	259
scalar scenarioOpp.node[168].netw 	"Global: # AckSent" 	115622
scalar scenarioOpp.node[168].netw 	"Global: # AckReceived" 	115166
scalar scenarioOpp.node[168].netw 	"Global: # PredictionsSent" 	37886
scalar scenarioOpp.node[168].netw 	"Global: # PredictionsReceived" 	33254
statistic scenarioOpp.node[168].netw 	"Global: DurationStats"
field count 173
field mean 18.57225433526
field stddev 50.717660495803
field sum 3213
field sqrsum 502105
field min 0
field max 474
bin	-INF	0
bin	-76.5	0
bin	-66.166666666667	0
bin	-55.833333333333	0
bin	-45.5	0
bin	-35.166666666667	0
bin	-24.833333333333	0
bin	-14.5	0
bin	-4.1666666666667	3
bin	6.1666666666667	152
bin	16.5	11
bin	26.833333333333	2
bin	37.166666666667	0
bin	47.5	0
bin	57.833333333333	0
bin	68.166666666667	0
bin	78.5	0
bin	88.833333333333	0
bin	99.166666666667	0
bin	109.5	0
bin	119.83333333333	0
bin	130.16666666667	0
bin	140.5	0
bin	150.83333333333	1
bin	161.16666666667	1
bin	171.5	0
bin	181.83333333333	0
bin	192.16666666667	0
bin	202.5	0
bin	212.83333333333	0
bin	223.16666666667	0
bin	233.5	3
scalar scenarioOpp.node[168].netw 	"Successful: # nbrContact" 	0
scalar scenarioOpp.node[168].netw 	"Successful: # nbrToDiscard" 	0
scalar scenarioOpp.node[168].netw 	"Successful: # L3Sent" 	0
scalar scenarioOpp.node[168].netw 	"Successful: # L3Received" 	0
scalar scenarioOpp.node[168].netw 	"Successful: # BundleSent" 	0
scalar scenarioOpp.node[168].netw 	"Successful: # BundleReceived" 	0
scalar scenarioOpp.node[168].netw 	"Successful: # AckSent" 	0
scalar scenarioOpp.node[168].netw 	"Successful: # AckReceived" 	0
scalar scenarioOpp.node[168].netw 	"Successful: # PredictionsSent" 	0
scalar scenarioOpp.node[168].netw 	"Successful: # PredictionsReceived" 	0
statistic scenarioOpp.node[168].netw 	"Successful: DurationStats"
field count 0
field mean -nan
field stddev -nan
field sum 0
field sqrsum 0
field min -nan
field max -nan
bin	-INF	0
bin	-0.5	0
bin	-0.46666666666667	0
bin	-0.43333333333333	0
bin	-0.4	0
bin	-0.36666666666667	0
bin	-0.33333333333333	0
bin	-0.3	0
bin	-0.26666666666667	0
bin	-0.23333333333333	0
bin	-0.2	0
bin	-0.16666666666667	0
bin	-0.13333333333333	0
bin	-0.1	0
bin	-0.066666666666667	0
bin	-0.033333333333333	0
bin	0	0
bin	0.033333333333333	0
bin	0.066666666666667	0
bin	0.1	0
bin	0.13333333333333	0
bin	0.16666666666667	0
bin	0.2	0
bin	0.23333333333333	0
bin	0.26666666666667	0
bin	0.3	0
bin	0.33333333333333	0
bin	0.36666666666667	0
bin	0.4	0
bin	0.43333333333333	0
bin	0.46666666666667	0
bin	0.5	0
scalar scenarioOpp.node[168].netw 	"Failed: # nbrContact" 	173
scalar scenarioOpp.node[168].netw 	"Failed: # nbrToDiscard" 	5
scalar scenarioOpp.node[168].netw 	"Failed: % repeated" 	28.323699421965
scalar scenarioOpp.node[168].netw 	"Failed: # L3Sent" 	694
scalar scenarioOpp.node[168].netw 	"Failed: # L3Received" 	792
scalar scenarioOpp.node[168].netw 	"Failed: # BundleSent" 	220
scalar scenarioOpp.node[168].netw 	"Failed: # BundleReceived" 	259
scalar scenarioOpp.node[168].netw 	"Failed: # AckSent" 	115622
scalar scenarioOpp.node[168].netw 	"Failed: # AckReceived" 	115166
scalar scenarioOpp.node[168].netw 	"Failed: # PredictionsSent" 	37886
scalar scenarioOpp.node[168].netw 	"Failed: # PredictionsReceived" 	33254
statistic scenarioOpp.node[168].netw 	"Failed: DurationStats"
field count 173
field mean 18.57225433526
field stddev 50.717660495803
field sum 3213
field sqrsum 502105
field min 0
field max 474
bin	-INF	0
bin	-76.5	0
bin	-66.166666666667	0
bin	-55.833333333333	0
bin	-45.5	0
bin	-35.166666666667	0
bin	-24.833333333333	0
bin	-14.5	0
bin	-4.1666666666667	3
bin	6.1666666666667	152
bin	16.5	11
bin	26.833333333333	2
bin	37.166666666667	0
bin	47.5	0
bin	57.833333333333	0
bin	68.166666666667	0
bin	78.5	0
bin	88.833333333333	0
bin	99.166666666667	0
bin	109.5	0
bin	119.83333333333	0
bin	130.16666666667	0
bin	140.5	0
bin	150.83333333333	1
bin	161.16666666667	1
bin	171.5	0
bin	181.83333333333	0
bin	192.16666666667	0
bin	202.5	0
bin	212.83333333333	0
bin	223.16666666667	0
bin	233.5	3
statistic scenarioOpp.node[168].netw 	"Histogram for max nbr repeated contact"
field count 42
field mean 1.1666666666667
field stddev 0.37719547023291
field sum 49
field sqrsum 63
field min 1
field max 2
attr type  int
bin	-INF	0
bin	0	0
bin	1	35
bin	2	7
bin	3	0
scalar scenarioOpp.node[168].netw 	"Bars for #repeated 1" 	42
scalar scenarioOpp.node[168].netw 	"Bars for #repeated 2" 	7
scalar scenarioOpp.node[168].netw 	"Bars for #repeated 3" 	0
scalar scenarioOpp.node[168].netw 	"Bars for #repeated 4" 	0
scalar scenarioOpp.node[168].netw 	"Bars for #repeated 5" 	0
scalar scenarioOpp.node[168].netw 	"Contact CDF LQ1 #repeated 1" 	3
scalar scenarioOpp.node[168].netw 	"Contact CDF G1LQ5 #repeated 1" 	0
scalar scenarioOpp.node[168].netw 	"Contact CDF G5LQ20 #repeated 1" 	36
scalar scenarioOpp.node[168].netw 	"Contact CDF G20LQ50 #repeated 1" 	2
scalar scenarioOpp.node[168].netw 	"Contact CDF G50LQ100 #repeated 1" 	0
scalar scenarioOpp.node[168].netw 	"Contact CDF G100LQ500 #repeated 1" 	0
scalar scenarioOpp.node[168].netw 	"Contact CDF G500 #repeated 1" 	0
scalar scenarioOpp.node[168].netw 	"Contact CDF LQ1 #repeated 2" 	0
scalar scenarioOpp.node[168].netw 	"Contact CDF G1LQ5 #repeated 2" 	0
scalar scenarioOpp.node[168].netw 	"Contact CDF G5LQ20 #repeated 2" 	6
scalar scenarioOpp.node[168].netw 	"Contact CDF G20LQ50 #repeated 2" 	1
scalar scenarioOpp.node[168].netw 	"Contact CDF G50LQ100 #repeated 2" 	0
scalar scenarioOpp.node[168].netw 	"Contact CDF G100LQ500 #repeated 2" 	0
scalar scenarioOpp.node[168].netw 	"Contact CDF G500 #repeated 2" 	0
scalar scenarioOpp.node[168].netw 	"InterContact CDF LQ1 #repeated 1" 	2
scalar scenarioOpp.node[168].netw 	"InterContact CDF G1LQ5 #repeated 1" 	0
scalar scenarioOpp.node[168].netw 	"InterContact CDF G5LQ20 #repeated 1" 	0
scalar scenarioOpp.node[168].netw 	"InterContact CDF G20LQ50 #repeated 1" 	0
scalar scenarioOpp.node[168].netw 	"InterContact CDF G50LQ100 #repeated 1" 	0
scalar scenarioOpp.node[168].netw 	"InterContact CDF G100LQ500 #repeated 1" 	0
scalar scenarioOpp.node[168].netw 	"InterContact CDF G500 #repeated 1" 	24
scalar scenarioOpp.node[168].netw 	"InterContact CDF LQ1 #repeated 2" 	1
scalar scenarioOpp.node[168].netw 	"InterContact CDF G1LQ5 #repeated 2" 	0
scalar scenarioOpp.node[168].netw 	"InterContact CDF G5LQ20 #repeated 2" 	0
scalar scenarioOpp.node[168].netw 	"InterContact CDF G20LQ50 #repeated 2" 	0
scalar scenarioOpp.node[168].netw 	"InterContact CDF G50LQ100 #repeated 2" 	0
scalar scenarioOpp.node[168].netw 	"InterContact CDF G100LQ500 #repeated 2" 	0
scalar scenarioOpp.node[168].netw 	"InterContact CDF G500 #repeated 2" 	4
statistic scenarioOpp.node[168].netw 	"Histogram for total contact duration"
field count 41
field mean 12.341463414634
field stddev 7.8313784102722
field sum 506
field sqrsum 8698
field min 0
field max 44
attr type  int
bin	-INF	0
bin	-22	0
bin	-21	0
bin	-20	0
bin	-19	0
bin	-18	0
bin	-17	0
bin	-16	0
bin	-15	0
bin	-14	0
bin	-13	0
bin	-12	0
bin	-11	0
bin	-10	0
bin	-9	0
bin	-8	0
bin	-7	0
bin	-6	0
bin	-5	0
bin	-4	0
bin	-3	0
bin	-2	0
bin	-1	0
bin	0	1
bin	1	0
bin	2	0
bin	3	0
bin	4	0
bin	5	0
bin	6	0
bin	7	0
bin	8	0
bin	9	14
bin	10	13
bin	11	4
bin	12	1
bin	13	1
bin	14	0
bin	15	0
bin	16	0
bin	17	0
bin	18	2
bin	19	1
bin	20	1
bin	21	1
bin	22	0
bin	23	0
bin	24	0
bin	25	0
bin	26	0
bin	27	0
bin	28	0
bin	29	0
bin	30	0
bin	31	0
bin	32	0
bin	33	0
bin	34	0
bin	35	0
bin	36	0
bin	37	0
bin	38	0
bin	39	0
bin	40	0
bin	41	1
bin	42	0
bin	43	0
bin	44	1
bin	45	0
bin	46	0
bin	47	0
bin	48	0
bin	49	0
bin	50	0
bin	51	0
bin	52	0
bin	53	0
bin	54	0
bin	55	0
bin	56	0
bin	57	0
bin	58	0
bin	59	0
bin	60	0
bin	61	0
bin	62	0
bin	63	0
bin	64	0
bin	65	0
bin	66	0
statistic scenarioOpp.node[168].netw 	"Histogram for total interContact duration"
field count 42
field mean 632.16666666667
field stddev 240.59853381005
field sum 26551
field sqrsum 19158051
field min 1
field max 1169
attr type  int
bin	-INF	0
bin	-585	0
bin	-573	0
bin	-561	0
bin	-549	0
bin	-537	0
bin	-525	0
bin	-513	0
bin	-501	0
bin	-489	0
bin	-477	0
bin	-465	0
bin	-453	0
bin	-441	0
bin	-429	0
bin	-417	0
bin	-405	0
bin	-393	0
bin	-381	0
bin	-369	0
bin	-357	0
bin	-345	0
bin	-333	0
bin	-321	0
bin	-309	0
bin	-297	0
bin	-285	0
bin	-273	0
bin	-261	0
bin	-249	0
bin	-237	0
bin	-225	0
bin	-213	0
bin	-201	0
bin	-189	0
bin	-177	0
bin	-165	0
bin	-153	0
bin	-141	0
bin	-129	0
bin	-117	0
bin	-105	0
bin	-93	0
bin	-81	0
bin	-69	0
bin	-57	0
bin	-45	0
bin	-33	0
bin	-21	0
bin	-9	1
bin	3	0
bin	15	0
bin	27	0
bin	39	0
bin	51	0
bin	63	0
bin	75	0
bin	87	0
bin	99	0
bin	111	0
bin	123	0
bin	135	1
bin	147	0
bin	159	0
bin	171	0
bin	183	0
bin	195	0
bin	207	0
bin	219	0
bin	231	0
bin	243	0
bin	255	0
bin	267	0
bin	279	1
bin	291	1
bin	303	0
bin	315	0
bin	327	0
bin	339	0
bin	351	0
bin	363	0
bin	375	0
bin	387	0
bin	399	0
bin	411	0
bin	423	1
bin	435	8
bin	447	0
bin	459	0
bin	471	0
bin	483	0
bin	495	0
bin	507	0
bin	519	0
bin	531	0
bin	543	0
bin	555	0
bin	567	1
bin	579	6
bin	591	3
bin	603	0
bin	615	0
bin	627	0
bin	639	0
bin	651	0
bin	663	0
bin	675	0
bin	687	0
bin	699	0
bin	711	0
bin	723	5
bin	735	3
bin	747	0
bin	759	0
bin	771	0
bin	783	0
bin	795	0
bin	807	0
bin	819	0
bin	831	0
bin	843	2
bin	855	0
bin	867	4
bin	879	2
bin	891	0
bin	903	0
bin	915	0
bin	927	0
bin	939	0
bin	951	0
bin	963	0
bin	975	0
bin	987	0
bin	999	0
bin	1011	1
bin	1023	1
bin	1035	0
bin	1047	0
bin	1059	0
bin	1071	0
bin	1083	0
bin	1095	0
bin	1107	0
bin	1119	0
bin	1131	0
bin	1143	0
bin	1155	0
bin	1167	1
bin	1179	0
bin	1191	0
bin	1203	0
bin	1215	0
bin	1227	0
bin	1239	0
bin	1251	0
bin	1263	0
bin	1275	0
bin	1287	0
bin	1299	0
bin	1311	0
bin	1323	0
bin	1335	0
bin	1347	0
bin	1359	0
bin	1371	0
bin	1383	0
bin	1395	0
bin	1407	0
bin	1419	0
bin	1431	0
bin	1443	0
bin	1455	0
bin	1467	0
bin	1479	0
bin	1491	0
bin	1503	0
bin	1515	0
bin	1527	0
bin	1539	0
bin	1551	0
bin	1563	0
bin	1575	0
bin	1587	0
bin	1599	0
bin	1611	0
bin	1623	0
bin	1635	0
bin	1647	0
bin	1659	0
bin	1671	0
bin	1683	0
bin	1695	0
bin	1707	0
bin	1719	0
bin	1731	0
bin	1743	0
bin	1755	0
scalar scenarioOpp.node[168].mobility 	Community 	0
scalar scenarioOpp.node[182].appl 	"# Bundle Sent" 	0
scalar scenarioOpp.node[182].appl 	"# Bundle Received" 	0
scalar scenarioOpp.node[182].netw 	"# L3Sent" 	551
scalar scenarioOpp.node[182].netw 	"# L3Received" 	635
scalar scenarioOpp.node[182].netw 	"# of Contacts" 	142
scalar scenarioOpp.node[182].netw 	"# of InterContacts" 	39
scalar scenarioOpp.node[182].netw 	"Global: # nbrContact" 	142
scalar scenarioOpp.node[182].netw 	"Global: # nbrToDiscard" 	1
scalar scenarioOpp.node[182].netw 	"Global: % repeated" 	28.169014084507
scalar scenarioOpp.node[182].netw 	"Global: # L3Sent" 	551
scalar scenarioOpp.node[182].netw 	"Global: # L3Received" 	635
scalar scenarioOpp.node[182].netw 	"Global: # BundleSent" 	160
scalar scenarioOpp.node[182].netw 	"Global: # BundleReceived" 	183
scalar scenarioOpp.node[182].netw 	"Global: # AckSent" 	94145
scalar scenarioOpp.node[182].netw 	"Global: # AckReceived" 	94651
scalar scenarioOpp.node[182].netw 	"Global: # PredictionsSent" 	31205
scalar scenarioOpp.node[182].netw 	"Global: # PredictionsReceived" 	27211
statistic scenarioOpp.node[182].netw 	"Global: DurationStats"
field count 142
field mean 14.415492957746
field stddev 50.008118909308
field sum 2047
field sqrsum 382123
field min 1
field max 605
bin	-INF	0
bin	-12	0
bin	-10.266666666667	0
bin	-8.5333333333333	0
bin	-6.8	0
bin	-5.0666666666667	0
bin	-3.3333333333333	0
bin	-1.6	0
bin	0.13333333333333	2
bin	1.8666666666667	0
bin	3.6	0
bin	5.3333333333333	1
bin	7.0666666666667	1
bin	8.8	112
bin	10.533333333333	10
bin	12.266666666667	3
bin	14	4
bin	15.733333333333	0
bin	17.466666666667	1
bin	19.2	5
bin	20.933333333333	1
bin	22.666666666667	0
bin	24.4	0
bin	26.133333333333	1
bin	27.866666666667	0
bin	29.6	0
bin	31.333333333333	0
bin	33.066666666667	0
bin	34.8	0
bin	36.533333333333	0
bin	38.266666666667	0
bin	40	1
scalar scenarioOpp.node[182].netw 	"Successful: # nbrContact" 	0
scalar scenarioOpp.node[182].netw 	"Successful: # nbrToDiscard" 	0
scalar scenarioOpp.node[182].netw 	"Successful: # L3Sent" 	0
scalar scenarioOpp.node[182].netw 	"Successful: # L3Received" 	0
scalar scenarioOpp.node[182].netw 	"Successful: # BundleSent" 	0
scalar scenarioOpp.node[182].netw 	"Successful: # BundleReceived" 	0
scalar scenarioOpp.node[182].netw 	"Successful: # AckSent" 	0
scalar scenarioOpp.node[182].netw 	"Successful: # AckReceived" 	0
scalar scenarioOpp.node[182].netw 	"Successful: # PredictionsSent" 	0
scalar scenarioOpp.node[182].netw 	"Successful: # PredictionsReceived" 	0
statistic scenarioOpp.node[182].netw 	"Successful: DurationStats"
field count 0
field mean -nan
field stddev -nan
field sum 0
field sqrsum 0
field min -nan
field max -nan
bin	-INF	0
bin	-0.5	0
bin	-0.46666666666667	0
bin	-0.43333333333333	0
bin	-0.4	0
bin	-0.36666666666667	0
bin	-0.33333333333333	0
bin	-0.3	0
bin	-0.26666666666667	0
bin	-0.23333333333333	0
bin	-0.2	0
bin	-0.16666666666667	0
bin	-0.13333333333333	0
bin	-0.1	0
bin	-0.066666666666667	0
bin	-0.033333333333333	0
bin	0	0
bin	0.033333333333333	0
bin	0.066666666666667	0
bin	0.1	0
bin	0.13333333333333	0
bin	0.16666666666667	0
bin	0.2	0
bin	0.23333333333333	0
bin	0.26666666666667	0
bin	0.3	0
bin	0.33333333333333	0
bin	0.36666666666667	0
bin	0.4	0
bin	0.43333333333333	0
bin	0.46666666666667	0
bin	0.5	0
scalar scenarioOpp.node[182].netw 	"Failed: # nbrContact" 	142
scalar scenarioOpp.node[182].netw 	"Failed: # nbrToDiscard" 	1
scalar scenarioOpp.node[182].netw 	"Failed: % repeated" 	28.169014084507
scalar scenarioOpp.node[182].netw 	"Failed: # L3Sent" 	551
scalar scenarioOpp.node[182].netw 	"Failed: # L3Received" 	635
scalar scenarioOpp.node[182].netw 	"Failed: # BundleSent" 	160
scalar scenarioOpp.node[182].netw 	"Failed: # BundleReceived" 	183
scalar scenarioOpp.node[182].netw 	"Failed: # AckSent" 	94145
scalar scenarioOpp.node[182].netw 	"Failed: # AckReceived" 	94651
scalar scenarioOpp.node[182].netw 	"Failed: # PredictionsSent" 	31205
scalar scenarioOpp.node[182].netw 	"Failed: # PredictionsReceived" 	27211
statistic scenarioOpp.node[182].netw 	"Failed: DurationStats"
field count 142
field mean 14.415492957746
field stddev 50.008118909308
field sum 2047
field sqrsum 382123
field min 1
field max 605
bin	-INF	0
bin	-12	0
bin	-10.266666666667	0
bin	-8.5333333333333	0
bin	-6.8	0
bin	-5.0666666666667	0
bin	-3.3333333333333	0
bin	-1.6	0
bin	0.13333333333333	2
bin	1.8666666666667	0
bin	3.6	0
bin	5.3333333333333	1
bin	7.0666666666667	1
bin	8.8	112
bin	10.533333333333	10
bin	12.266666666667	3
bin	14	4
bin	15.733333333333	0
bin	17.466666666667	1
bin	19.2	5
bin	20.933333333333	1
bin	22.666666666667	0
bin	24.4	0
bin	26.133333333333	1
bin	27.866666666667	0
bin	29.6	0
bin	31.333333333333	0
bin	33.066666666667	0
bin	34.8	0
bin	36.533333333333	0
bin	38.266666666667	0
bin	40	1
statistic scenarioOpp.node[182].netw 	"Histogram for max nbr repeated contact"
field count 32
field mean 1.21875
field stddev 0.49084357931508
field sum 39
field sqrsum 55
field min 1
field max 3
attr type  int
bin	-INF	0
bin	0	0
bin	1	26
bin	2	5
bin	3	1
bin	4	0
scalar scenarioOpp.node[182].netw 	"Bars for #repeated 1" 	32
scalar scenarioOpp.node[182].netw 	"Bars for #repeated 2" 	6
scalar scenarioOpp.node[182].netw 	"Bars for #repeated 3" 	1
scalar scenarioOpp.node[182].netw 	"Bars for #repeated 4" 	0
scalar scenarioOpp.node[182].netw 	"Bars for #repeated 5" 	0
scalar scenarioOpp.node[182].netw 	"Contact CDF LQ1 #repeated 1" 	0
scalar scenarioOpp.node[182].netw 	"Contact CDF G1LQ5 #repeated 1" 	0
scalar scenarioOpp.node[182].netw 	"Contact CDF G5LQ20 #repeated 1" 	31
scalar scenarioOpp.node[182].netw 	"Contact CDF G20LQ50 #repeated 1" 	1
scalar scenarioOpp.node[182].netw 	"Contact CDF G50LQ100 #repeated 1" 	0
scalar scenarioOpp.node[182].netw 	"Contact CDF G100LQ500 #repeated 1" 	0
scalar scenarioOpp.node[182].netw 	"Contact CDF G500 #repeated 1" 	0
scalar scenarioOpp.node[182].netw 	"Contact CDF LQ1 #repeated 2" 	0
scalar scenarioOpp.node[182].netw 	"Contact CDF G1LQ5 #repeated 2" 	0
scalar scenarioOpp.node[182].netw 	"Contact CDF G5LQ20 #repeated 2" 	6
scalar scenarioOpp.node[182].netw 	"Contact CDF G20LQ50 #repeated 2" 	0
scalar scenarioOpp.node[182].netw 	"Contact CDF G50LQ100 #repeated 2" 	0
scalar scenarioOpp.node[182].netw 	"Contact CDF G100LQ500 #repeated 2" 	0
scalar scenarioOpp.node[182].netw 	"Contact CDF G500 #repeated 2" 	0
scalar scenarioOpp.node[182].netw 	"Contact CDF LQ1 #repeated 3" 	0
scalar scenarioOpp.node[182].netw 	"Contact CDF G1LQ5 #repeated 3" 	0
scalar scenarioOpp.node[182].netw 	"Contact CDF G5LQ20 #repeated 3" 	1
scalar scenarioOpp.node[182].netw 	"Contact CDF G20LQ50 #repeated 3" 	0
scalar scenarioOpp.node[182].netw 	"Contact CDF G50LQ100 #repeated 3" 	0
scalar scenarioOpp.node[182].netw 	"Contact CDF G100LQ500 #repeated 3" 	0
scalar scenarioOpp.node[182].netw 	"Contact CDF G500 #repeated 3" 	0
scalar scenarioOpp.node[182].netw 	"InterContact CDF LQ1 #repeated 1" 	1
scalar scenarioOpp.node[182].netw 	"InterContact CDF G1LQ5 #repeated 1" 	0
scalar scenarioOpp.node[182].netw 	"InterContact CDF G5LQ20 #repeated 1" 	0
scalar scenarioOpp.node[182].netw 	"InterContact CDF G20LQ50 #repeated 1" 	0
scalar scenarioOpp.node[182].netw 	"InterContact CDF G50LQ100 #repeated 1" 	0
scalar scenarioOpp.node[182].netw 	"InterContact CDF G100LQ500 #repeated 1" 	0
scalar scenarioOpp.node[182].netw 	"InterContact CDF G500 #repeated 1" 	14
scalar scenarioOpp.node[182].netw 	"InterContact CDF LQ1 #repeated 2" 	0
scalar scenarioOpp.node[182].netw 	"InterContact CDF G1LQ5 #repeated 2" 	0
scalar scenarioOpp.node[182].netw 	"InterContact CDF G5LQ20 #repeated 2" 	0
scalar scenarioOpp.node[182].netw 	"InterContact CDF G20LQ50 #repeated 2" 	0
scalar scenarioOpp.node[182].netw 	"InterContact CDF G50LQ100 #repeated 2" 	0
scalar scenarioOpp.node[182].netw 	"InterContact CDF G100LQ500 #repeated 2" 	0
scalar scenarioOpp.node[182].netw 	"InterContact CDF G500 #repeated 2" 	1
scalar scenarioOpp.node[182].netw 	"InterContact CDF LQ1 #repeated 3" 	0
scalar scenarioOpp.node[182].netw 	"InterContact CDF G1LQ5 #repeated 3" 	0
scalar scenarioOpp.node[182].netw 	"InterContact CDF G5LQ20 #repeated 3" 	0
scalar scenarioOpp.node[182].netw 	"InterContact CDF G20LQ50 #repeated 3" 	0
scalar scenarioOpp.node[182].netw 	"InterContact CDF G50LQ100 #repeated 3" 	0
scalar scenarioOpp.node[182].netw 	"InterContact CDF G100LQ500 #repeated 3" 	0
scalar scenarioOpp.node[182].netw 	"InterContact CDF G500 #repeated 3" 	0
statistic scenarioOpp.node[182].netw 	"Histogram for total contact duration"
field count 32
field mean 13.09375
field stddev 6.7887923530554
field sum 419
field sqrsum 6915
field min 7
field max 39
attr type  int
bin	-INF	0
bin	-9	0
bin	-8	0
bin	-7	0
bin	-6	0
bin	-5	0
bin	-4	0
bin	-3	0
bin	-2	0
bin	-1	0
bin	0	0
bin	1	0
bin	2	0
bin	3	0
bin	4	0
bin	5	0
bin	6	0
bin	7	1
bin	8	0
bin	9	10
bin	10	8
bin	11	3
bin	12	0
bin	13	2
bin	14	0
bin	15	0
bin	16	0
bin	17	0
bin	18	2
bin	19	1
bin	20	2
bin	21	1
bin	22	0
bin	23	0
bin	24	0
bin	25	0
bin	26	0
bin	27	0
bin	28	1
bin	29	0
bin	30	0
bin	31	0
bin	32	0
bin	33	0
bin	34	0
bin	35	0
bin	36	0
bin	37	0
bin	38	0
bin	39	1
bin	40	0
bin	41	0
bin	42	0
bin	43	0
bin	44	0
bin	45	0
bin	46	0
bin	47	0
bin	48	0
bin	49	0
bin	50	0
bin	51	0
bin	52	0
bin	53	0
bin	54	0
bin	55	0
[...]
scalar scenarioOpp.VPA[13].netw 	"Contact CDF LQ1 #repeated 3" 	0
scalar scenarioOpp.VPA[13].netw 	"Contact CDF G1LQ5 #repeated 3" 	0
scalar scenarioOpp.VPA[13].netw 	"Contact CDF G5LQ20 #repeated 3" 	10
scalar scenarioOpp.VPA[13].netw 	"Contact CDF G20LQ50 #repeated 3" 	2
scalar scenarioOpp.VPA[13].netw 	"Contact CDF G50LQ100 #repeated 3" 	0
scalar scenarioOpp.VPA[13].netw 	"Contact CDF G100LQ500 #repeated 3" 	0
scalar scenarioOpp.VPA[13].netw 	"Contact CDF G500 #repeated 3" 	0
scalar scenarioOpp.VPA[13].netw 	"Contact CDF LQ1 #repeated 4" 	0
scalar scenarioOpp.VPA[13].netw 	"Contact CDF G1LQ5 #repeated 4" 	0
scalar scenarioOpp.VPA[13].netw 	"Contact CDF G5LQ20 #repeated 4" 	6
scalar scenarioOpp.VPA[13].netw 	"Contact CDF G20LQ50 #repeated 4" 	1
scalar scenarioOpp.VPA[13].netw 	"Contact CDF G50LQ100 #repeated 4" 	0
scalar scenarioOpp.VPA[13].netw 	"Contact CDF G100LQ500 #repeated 4" 	0
scalar scenarioOpp.VPA[13].netw 	"Contact CDF G500 #repeated 4" 	0
scalar scenarioOpp.VPA[13].netw 	"Contact CDF LQ1 #repeated 5" 	0
scalar scenarioOpp.VPA[13].netw 	"Contact CDF G1LQ5 #repeated 5" 	0
scalar scenarioOpp.VPA[13].netw 	"Contact CDF G5LQ20 #repeated 5" 	5
scalar scenarioOpp.VPA[13].netw 	"Contact CDF G20LQ50 #repeated 5" 	1
scalar scenarioOpp.VPA[13].netw 	"Contact CDF G50LQ100 #repeated 5" 	0
scalar scenarioOpp.VPA[13].netw 	"Contact CDF G100LQ500 #repeated 5" 	0
scalar scenarioOpp.VPA[13].netw 	"Contact CDF G500 #repeated 5" 	0
scalar scenarioOpp.VPA[13].netw 	"InterContact CDF LQ1 #repeated 1" 	0
scalar scenarioOpp.VPA[13].netw 	"InterContact CDF G1LQ5 #repeated 1" 	0
scalar scenarioOpp.VPA[13].netw 	"InterContact CDF G5LQ20 #repeated 1" 	0
scalar scenarioOpp.VPA[13].netw 	"InterContact CDF G20LQ50 #repeated 1" 	0
scalar scenarioOpp.VPA[13].netw 	"InterContact CDF G50LQ100 #repeated 1" 	0
scalar scenarioOpp.VPA[13].netw 	"InterContact CDF G100LQ500 #repeated 1" 	0
scalar scenarioOpp.VPA[13].netw 	"InterContact CDF G500 #repeated 1" 	35
scalar scenarioOpp.VPA[13].netw 	"InterContact CDF LQ1 #repeated 2" 	0
scalar scenarioOpp.VPA[13].netw 	"InterContact CDF G1LQ5 #repeated 2" 	0
scalar scenarioOpp.VPA[13].netw 	"InterContact CDF G5LQ20 #repeated 2" 	0
scalar scenarioOpp.VPA[13].netw 	"InterContact CDF G20LQ50 #repeated 2" 	0
scalar scenarioOpp.VPA[13].netw 	"InterContact CDF G50LQ100 #repeated 2" 	0
scalar scenarioOpp.VPA[13].netw 	"InterContact CDF G100LQ500 #repeated 2" 	0
scalar scenarioOpp.VPA[13].netw 	"InterContact CDF G500 #repeated 2" 	16
scalar scenarioOpp.VPA[13].netw 	"InterContact CDF LQ1 #repeated 3" 	0
scalar scenarioOpp.VPA[13].netw 	"InterContact CDF G1LQ5 #repeated 3" 	0
scalar scenarioOpp.VPA[13].netw 	"InterContact CDF G5LQ20 #repeated 3" 	0
scalar scenarioOpp.VPA[13].netw 	"InterContact CDF G20LQ50 #repeated 3" 	0
scalar scenarioOpp.VPA[13].netw 	"InterContact CDF G50LQ100 #repeated 3" 	0
scalar scenarioOpp.VPA[13].netw 	"InterContact CDF G100LQ500 #repeated 3" 	0
scalar scenarioOpp.VPA[13].netw 	"InterContact CDF G500 #repeated 3" 	8
scalar scenarioOpp.VPA[13].netw 	"InterContact CDF LQ1 #repeated 4" 	0
scalar scenarioOpp.VPA[13].netw 	"InterContact CDF G1LQ5 #repeated 4" 	0
scalar scenarioOpp.VPA[13].netw 	"InterContact CDF G5LQ20 #repeated 4" 	0
scalar scenarioOpp.VPA[13].netw 	"InterContact CDF G20LQ50 #repeated 4" 	0
scalar scenarioOpp.VPA[13].netw 	"InterContact CDF G50LQ100 #repeated 4" 	0
scalar scenarioOpp.VPA[13].netw 	"InterContact CDF G100LQ500 #repeated 4" 	0
scalar scenarioOpp.VPA[13].netw 	"InterContact CDF G500 #repeated 4" 	4
scalar scenarioOpp.VPA[13].netw 	"InterContact CDF LQ1 #repeated 5" 	0
scalar scenarioOpp.VPA[13].netw 	"InterContact CDF G1LQ5 #repeated 5" 	0
scalar scenarioOpp.VPA[13].netw 	"InterContact CDF G5LQ20 #repeated 5" 	0
scalar scenarioOpp.VPA[13].netw 	"InterContact CDF G20LQ50 #repeated 5" 	0
scalar scenarioOpp.VPA[13].netw 	"InterContact CDF G50LQ100 #repeated 5" 	0
scalar scenarioOpp.VPA[13].netw 	"InterContact CDF G100LQ500 #repeated 5" 	0
scalar scenarioOpp.VPA[13].netw 	"InterContact CDF G500 #repeated 5" 	3
statistic scenarioOpp.VPA[13].netw 	"Histogram for total contact duration"
field count 62
field mean 37.258064516129
field stddev 26.564450227035
field sum 2310
field sqrsum 129112
field min 18
field max 121
attr type  int
bin	-INF	0
bin	-34	0
bin	-32	0
bin	-30	0
bin	-28	0
bin	-26	0
bin	-24	0
bin	-22	0
bin	-20	0
bin	-18	0
bin	-16	0
bin	-14	0
bin	-12	0
bin	-10	0
bin	-8	0
bin	-6	0
bin	-4	0
bin	-2	0
bin	0	0
bin	2	0
bin	4	0
bin	6	0
bin	8	0
bin	10	0
bin	12	0
bin	14	0
bin	16	0
bin	18	3
bin	20	32
bin	22	0
bin	24	0
bin	26	0
bin	28	0
bin	30	0
bin	32	0
bin	34	0
bin	36	0
bin	38	1
bin	40	12
bin	42	1
bin	44	1
bin	46	0
bin	48	0
bin	50	0
bin	52	0
bin	54	0
bin	56	0
bin	58	0
bin	60	4
bin	62	0
bin	64	0
bin	66	0
bin	68	1
bin	70	0
bin	72	0
bin	74	1
bin	76	0
bin	78	0
bin	80	1
bin	82	0
bin	84	0
bin	86	1
bin	88	0
bin	90	0
bin	92	0
bin	94	0
bin	96	0
bin	98	0
bin	100	1
bin	102	0
bin	104	0
bin	106	0
bin	108	0
bin	110	0
bin	112	1
bin	114	0
bin	116	0
bin	118	0
bin	120	2
bin	122	0
bin	124	0
bin	126	0
bin	128	0
bin	130	0
bin	132	0
bin	134	0
bin	136	0
bin	138	0
bin	140	0
bin	142	0
bin	144	0
bin	146	0
bin	148	0
bin	150	0
bin	152	0
bin	154	0
bin	156	0
bin	158	0
bin	160	0
bin	162	0
bin	164	0
bin	166	0
bin	168	0
bin	170	0
bin	172	0
bin	174	0
statistic scenarioOpp.VPA[13].netw 	"Histogram for total interContact duration"
field count 62
field mean 1084.6612903226
field stddev 865.82446151003
field sum 67249
field sqrsum 118671159
field min 276
field max 3150
attr type  int
bin	-INF	0
bin	-1172	0
bin	-1143	0
bin	-1114	0
bin	-1085	0
bin	-1056	0
bin	-1027	0
bin	-998	0
bin	-969	0
bin	-940	0
bin	-911	0
bin	-882	0
bin	-853	0
bin	-824	0
bin	-795	0
bin	-766	0
bin	-737	0
bin	-708	0
bin	-679	0
bin	-650	0
bin	-621	0
bin	-592	0
bin	-563	0
bin	-534	0
bin	-505	0
bin	-476	0
bin	-447	0
bin	-418	0
bin	-389	0
bin	-360	0
bin	-331	0
bin	-302	0
bin	-273	0
bin	-244	0
bin	-215	0
bin	-186	0
bin	-157	0
bin	-128	0
bin	-99	0
bin	-70	0
bin	-41	0
bin	-12	0
bin	17	0
bin	46	0
bin	75	0
bin	104	0
bin	133	0
bin	162	0
bin	191	0
bin	220	0
bin	249	20
bin	278	3
bin	307	0
bin	336	0
bin	365	0
bin	394	0
bin	423	0
bin	452	0
bin	481	0
bin	510	0
bin	539	0
bin	568	6
bin	597	0
bin	626	0
bin	655	0
bin	684	0
bin	713	0
bin	742	0
bin	771	0
bin	800	0
bin	829	4
bin	858	2
bin	887	0
bin	916	0
bin	945	0
bin	974	0
bin	1003	0
bin	1032	0
bin	1061	0
bin	1090	0
bin	1119	2
bin	1148	2
bin	1177	0
bin	1206	0
bin	1235	0
bin	1264	0
bin	1293	0
bin	1322	0
bin	1351	0
bin	1380	0
bin	1409	2
bin	1438	1
bin	1467	0
bin	1496	0
bin	1525	0
bin	1554	0
bin	1583	0
bin	1612	0
bin	1641	0
bin	1670	0
bin	1699	4
bin	1728	4
bin	1757	0
bin	1786	0
bin	1815	0
bin	1844	0
bin	1873	0
bin	1902	0
bin	1931	0
bin	1960	0
bin	1989	1
bin	2018	2
bin	2047	0
bin	2076	0
bin	2105	0
bin	2134	0
bin	2163	0
bin	2192	0
bin	2221	1
bin	2250	2
bin	2279	1
bin	2308	0
bin	2337	0
bin	2366	0
bin	2395	0
bin	2424	0
bin	2453	0
bin	2482	0
bin	2511	0
bin	2540	1
bin	2569	0
bin	2598	0
bin	2627	0
bin	2656	0
bin	2685	0
bin	2714	0
bin	2743	0
bin	2772	0
bin	2801	0
bin	2830	1
bin	2859	1
bin	2888	0
bin	2917	0
bin	2946	0
bin	2975	0
bin	3004	0
bin	3033	0
bin	3062	0
bin	3091	0
bin	3120	1
bin	3149	1
bin	3178	0
bin	3207	0
bin	3236	0
bin	3265	0
bin	3294	0
bin	3323	0
bin	3352	0
bin	3381	0
bin	3410	0
bin	3439	0
bin	3468	0
bin	3497	0
bin	3526	0
bin	3555	0
bin	3584	0
bin	3613	0
bin	3642	0
bin	3671	0
bin	3700	0
bin	3729	0
bin	3758	0
bin	3787	0
bin	3816	0
bin	3845	0
bin	3874	0
bin	3903	0
bin	3932	0
bin	3961	0
bin	3990	0
bin	4019	0
bin	4048	0
bin	4077	0
bin	4106	0
bin	4135	0
bin	4164	0
bin	4193	0
bin	4222	0
bin	4251	0
bin	4280	0
bin	4309	0
bin	4338	0
bin	4367	0
bin	4396	0
bin	4425	0
bin	4454	0
bin	4483	0
bin	4512	0
bin	4541	0
bin	4570	0
bin	4599	0
scalar scenarioOpp.VPA[14].appl 	"# Bundle Sent" 	72
scalar scenarioOpp.VPA[14].appl 	"# Bundle Received" 	59
scalar scenarioOpp.VPA[14].appl 	"# Unique Bundle Received" 	59
statistic scenarioOpp.VPA[14].appl 	"Delays for 1st Copy"
field count 59
field mean 766.12315141725
field stddev 245.84853672812
field sum 45201.265933618
field sqrsum 38135343.479772
field min 148.66422767532
field max 1239.8616516278
bin	-INF	0
bin	-396.93448430092	0
bin	-324.18798937076	0
bin	-251.44149444059	0
bin	-178.69499951043	0
bin	-105.94850458026	0
bin	-33.202009650092	0
bin	39.544485280074	0
bin	112.29098021024	1
bin	185.03747514041	1
bin	257.78397007057	0
bin	330.53046500074	0
bin	403.27695993091	4
bin	476.02345486107	6
bin	548.76994979124	5
bin	621.51644472141	5
bin	694.26293965157	10
bin	767.00943458174	6
bin	839.75592951191	5
bin	912.50242444207	3
bin	985.24891937224	5
bin	1057.9954143024	2
bin	1130.7419092326	4
bin	1203.4884041627	2
bin	1276.2348990929	0
bin	1348.9813940231	0
bin	1421.7278889532	0
bin	1494.4743838834	0
bin	1567.2208788136	0
bin	1639.9673737437	0
bin	1712.7138686739	0
bin	1785.4603636041	0
statistic scenarioOpp.VPA[14].appl 	"HopCount for 1st Copy"
field count 59
field mean 3.3728813559322
field stddev 1.244273851174
field sum 199
field sqrsum 761
field min 2
field max 8
attr type  int
bin	-INF	0
bin	-1	0
bin	0	0
bin	1	0
bin	2	9
bin	3	37
bin	4	2
bin	5	7
bin	6	2
bin	7	1
bin	8	1
bin	9	0
bin	10	0
bin	11	0
scalar scenarioOpp.VPA[14].netw 	"# L3Sent" 	625
scalar scenarioOpp.VPA[14].netw 	"# L3Received" 	378
scalar scenarioOpp.VPA[14].netw 	"# of Contacts" 	80
scalar scenarioOpp.VPA[14].netw 	"# of InterContacts" 	23
scalar scenarioOpp.VPA[14].netw 	"Global: # nbrContact" 	80
scalar scenarioOpp.VPA[14].netw 	"Global: # nbrToDiscard" 	1
scalar scenarioOpp.VPA[14].netw 	"Global: % repeated" 	28.75
scalar scenarioOpp.VPA[14].netw 	"Global: # L3Sent" 	625
scalar scenarioOpp.VPA[14].netw 	"Global: # L3Received" 	378
scalar scenarioOpp.VPA[14].netw 	"Global: # BundleSent" 	351
scalar scenarioOpp.VPA[14].netw 	"Global: # BundleReceived" 	126
scalar scenarioOpp.VPA[14].netw 	"Global: # AckSent" 	32379
scalar scenarioOpp.VPA[14].netw 	"Global: # AckReceived" 	33251
scalar scenarioOpp.VPA[14].netw 	"Global: # PredictionsSent" 	12296
scalar scenarioOpp.VPA[14].netw 	"Global: # PredictionsReceived" 	9089
statistic scenarioOpp.VPA[14].netw 	"Global: DurationStats"
field count 80
field mean 20.175
field stddev 2.1861184606628
field sum 1614
field sqrsum 32940
field min 8
field max 29
bin	-INF	0
bin	-2.5	0
bin	-1.1	0
bin	0.3	0
bin	1.7	0
bin	3.1	0
bin	4.5	0
bin	5.9	0
bin	7.3	1
bin	8.7	0
bin	10.1	0
bin	11.5	0
bin	12.9	0
bin	14.3	0
bin	15.7	0
bin	17.1	5
bin	18.5	0
bin	19.9	70
bin	21.3	0
bin	22.7	1
bin	24.1	0
bin	25.5	1
bin	26.9	0
bin	28.3	2
bin	29.7	0
bin	31.1	0
bin	32.5	0
bin	33.9	0
bin	35.3	0
bin	36.7	0
bin	38.1	0
bin	39.5	0
scalar scenarioOpp.VPA[14].netw 	"Successful: # nbrContact" 	29
scalar scenarioOpp.VPA[14].netw 	"Successful: # nbrToDiscard" 	0
scalar scenarioOpp.VPA[14].netw 	"Successful: % repeated" 	37.931034482759
scalar scenarioOpp.VPA[14].netw 	"Successful: # L3Sent" 	230
scalar scenarioOpp.VPA[14].netw 	"Successful: # L3Received" 	166
scalar scenarioOpp.VPA[14].netw 	"Successful: # BundleSent" 	98
scalar scenarioOpp.VPA[14].netw 	"Successful: # BundleReceived" 	89
scalar scenarioOpp.VPA[14].netw 	"Successful: # AckSent" 	8340
scalar scenarioOpp.VPA[14].netw 	"Successful: # AckReceived" 	7558
scalar scenarioOpp.VPA[14].netw 	"Successful: # PredictionsSent" 	3432
scalar scenarioOpp.VPA[14].netw 	"Successful: # PredictionsReceived" 	2468
statistic scenarioOpp.VPA[14].netw 	"Successful: DurationStats"
field count 29
field mean 20
field stddev 0.46291004988628
field sum 580
field sqrsum 11606
field min 18
field max 21
bin	-INF	0
bin	16.5	0
bin	16.7	0
bin	16.9	0
bin	17.1	0
bin	17.3	0
bin	17.5	0
bin	17.7	0
bin	17.9	1
bin	18.1	0
bin	18.3	0
bin	18.5	0
bin	18.7	0
bin	18.9	0
bin	19.1	0
bin	19.3	0
bin	19.5	0
bin	19.7	0
bin	19.9	26
bin	20.1	0
bin	20.3	0
bin	20.5	0
bin	20.7	0
bin	20.9	2
bin	21.1	0
bin	21.3	0
bin	21.5	0
bin	21.7	0
bin	21.9	0
bin	22.1	0
bin	22.3	0
bin	22.5	0
scalar scenarioOpp.VPA[14].netw 	"Failed: # nbrContact" 	51
scalar scenarioOpp.VPA[14].netw 	"Failed: # nbrToDiscard" 	1
scalar scenarioOpp.VPA[14].netw 	"Failed: % repeated" 	23.529411764706
scalar scenarioOpp.VPA[14].netw 	"Failed: # L3Sent" 	395
scalar scenarioOpp.VPA[14].netw 	"Failed: # L3Received" 	212
scalar scenarioOpp.VPA[14].netw 	"Failed: # BundleSent" 	253
scalar scenarioOpp.VPA[14].netw 	"Failed: # BundleReceived" 	37
scalar scenarioOpp.VPA[14].netw 	"Failed: # AckSent" 	24039
scalar scenarioOpp.VPA[14].netw 	"Failed: # AckReceived" 	25693
scalar scenarioOpp.VPA[14].netw 	"Failed: # PredictionsSent" 	8864
scalar scenarioOpp.VPA[14].netw 	"Failed: # PredictionsReceived" 	6621
statistic scenarioOpp.VPA[14].netw 	"Failed: DurationStats"
field count 51
field mean 20.274509803922
field stddev 2.7208706795623
field sum 1034
field sqrsum 21334
field min 8
field max 29
bin	-INF	0
bin	-2.5	0
bin	-1.1	0
bin	0.3	0
bin	1.7	0
bin	3.1	0
bin	4.5	0
bin	5.9	0
bin	7.3	1
bin	8.7	0
bin	10.1	0
bin	11.5	0
bin	12.9	0
bin	14.3	0
bin	15.7	0
bin	17.1	4
bin	18.5	0
bin	19.9	42
bin	21.3	0
bin	22.7	1
bin	24.1	0
bin	25.5	1
bin	26.9	0
bin	28.3	2
bin	29.7	0
bin	31.1	0
bin	32.5	0
bin	33.9	0
bin	35.3	0
bin	36.7	0
bin	38.1	0
bin	39.5	0
statistic scenarioOpp.VPA[14].netw 	"Histogram for max nbr repeated contact"
field count 15
field mean 1.5333333333333
field stddev 0.74322335295721
field sum 23
field sqrsum 43
field min 1
field max 3
attr type  int
bin	-INF	0
bin	0	0
bin	1	9
bin	2	4
bin	3	2
bin	4	0
scalar scenarioOpp.VPA[14].netw 	"Bars for #repeated 1" 	15
scalar scenarioOpp.VPA[14].netw 	"Bars for #repeated 2" 	6
scalar scenarioOpp.VPA[14].netw 	"Bars for #repeated 3" 	2
scalar scenarioOpp.VPA[14].netw 	"Bars for #repeated 4" 	0
scalar scenarioOpp.VPA[14].netw 	"Bars for #repeated 5" 	0
scalar scenarioOpp.VPA[14].netw 	"Contact CDF LQ1 #repeated 1" 	0
scalar scenarioOpp.VPA[14].netw 	"Contact CDF G1LQ5 #repeated 1" 	0
scalar scenarioOpp.VPA[14].netw 	"Contact CDF G5LQ20 #repeated 1" 	13
scalar scenarioOpp.VPA[14].netw 	"Contact CDF G20LQ50 #repeated 1" 	2
scalar scenarioOpp.VPA[14].netw 	"Contact CDF G50LQ100 #repeated 1" 	0
scalar scenarioOpp.VPA[14].netw 	"Contact CDF G100LQ500 #repeated 1" 	0
scalar scenarioOpp.VPA[14].netw 	"Contact CDF G500 #repeated 1" 	0
scalar scenarioOpp.VPA[14].netw 	"Contact CDF LQ1 #repeated 2" 	0
scalar scenarioOpp.VPA[14].netw 	"Contact CDF G1LQ5 #repeated 2" 	0
scalar scenarioOpp.VPA[14].netw 	"Contact CDF G5LQ20 #repeated 2" 	5
scalar scenarioOpp.VPA[14].netw 	"Contact CDF G20LQ50 #repeated 2" 	1
scalar scenarioOpp.VPA[14].netw 	"Contact CDF G50LQ100 #repeated 2" 	0
scalar scenarioOpp.VPA[14].netw 	"Contact CDF G100LQ500 #repeated 2" 	0
scalar scenarioOpp.VPA[14].netw 	"Contact CDF G500 #repeated 2" 	0
scalar scenarioOpp.VPA[14].netw 	"Contact CDF LQ1 #repeated 3" 	0
scalar scenarioOpp.VPA[14].netw 	"Contact CDF G1LQ5 #repeated 3" 	0
scalar scenarioOpp.VPA[14].netw 	"Contact CDF G5LQ20 #repeated 3" 	2
scalar scenarioOpp.VPA[14].netw 	"Contact CDF G20LQ50 #repeated 3" 	0
scalar scenarioOpp.VPA[14].netw 	"Contact CDF G50LQ100 #repeated 3" 	0
scalar scenarioOpp.VPA[14].netw 	"Contact CDF G100LQ500 #repeated 3" 	0
scalar scenarioOpp.VPA[14].netw 	"Contact CDF G500 #repeated 3" 	0
scalar scenarioOpp.VPA[14].netw 	"InterContact CDF LQ1 #repeated 1" 	0
scalar scenarioOpp.VPA[14].netw 	"InterContact CDF G1LQ5 #repeated 1" 	0
scalar scenarioOpp.VPA[14].netw 	"InterContact CDF G5LQ20 #repeated 1" 	0
scalar scenarioOpp.VPA[14].netw 	"InterContact CDF G20LQ50 #repeated 1" 	0
scalar scenarioOpp.VPA[14].netw 	"InterContact CDF G50LQ100 #repeated 1" 	0
scalar scenarioOpp.VPA[14].netw 	"InterContact CDF G100LQ500 #repeated 1" 	0
scalar scenarioOpp.VPA[14].netw 	"InterContact CDF G500 #repeated 1" 	15
scalar scenarioOpp.VPA[14].netw 	"InterContact CDF LQ1 #repeated 2" 	0
scalar scenarioOpp.VPA[14].netw 	"InterContact CDF G1LQ5 #repeated 2" 	0
scalar scenarioOpp.VPA[14].netw 	"InterContact CDF G5LQ20 #repeated 2" 	0
scalar scenarioOpp.VPA[14].netw 	"InterContact CDF G20LQ50 #repeated 2" 	0
scalar scenarioOpp.VPA[14].netw 	"InterContact CDF G50LQ100 #repeated 2" 	0
scalar scenarioOpp.VPA[14].netw 	"InterContact CDF G100LQ500 #repeated 2" 	0
scalar scenarioOpp.VPA[14].netw 	"InterContact CDF G500 #repeated 2" 	6
scalar scenarioOpp.VPA[14].netw 	"InterContact CDF LQ1 #repeated 3" 	0
scalar scenarioOpp.VPA[14].netw 	"InterContact CDF G1LQ5 #repeated 3" 	0
scalar scenarioOpp.VPA[14].netw 	"InterContact CDF G5LQ20 #repeated 3" 	0
scalar scenarioOpp.VPA[14].netw 	"InterContact CDF G20LQ50 #repeated 3" 	0
scalar scenarioOpp.VPA[14].netw 	"InterContact CDF G50LQ100 #repeated 3" 	0
scalar scenarioOpp.VPA[14].netw 	"InterContact CDF G100LQ500 #repeated 3" 	0
scalar scenarioOpp.VPA[14].netw 	"InterContact CDF G500 #repeated 3" 	2
statistic scenarioOpp.VPA[14].netw 	"Histogram for total contact duration"
field count 15
field mean 30.466666666667
field stddev 14.76417801237
field sum 457
field sqrsum 16975
field min 18
field max 61
attr type  int
bin	-INF	0
bin	-4	0
bin	-3	0
bin	-2	0
bin	-1	0
bin	0	0
bin	1	0
bin	2	0
bin	3	0
bin	4	0
bin	5	0
bin	6	0
bin	7	0
bin	8	0
bin	9	0
bin	10	0
bin	11	0
bin	12	0
bin	13	0
bin	14	0
bin	15	0
bin	16	0
bin	17	0
bin	18	1
bin	19	0
bin	20	7
bin	21	1
bin	22	0
bin	23	0
bin	24	0
bin	25	0
bin	26	0
bin	27	0
bin	28	0
bin	29	0
bin	30	0
bin	31	0
bin	32	0
bin	33	0
bin	34	0
bin	35	0
bin	36	0
bin	37	0
bin	38	1
bin	39	0
bin	40	2
bin	41	1
bin	42	0
bin	43	0
bin	44	0
bin	45	0
bin	46	0
bin	47	0
bin	48	0
bin	49	0
bin	50	0
bin	51	0
bin	52	0
bin	53	0
bin	54	0
bin	55	0
bin	56	0
bin	57	0
bin	58	1
bin	59	0
bin	60	0
bin	61	1
bin	62	0
bin	63	0
bin	64	0
bin	65	0
bin	66	0
bin	67	0
bin	68	0
bin	69	0
bin	70	0
bin	71	0
bin	72	0
bin	73	0
bin	74	0
bin	75	0
bin	76	0
bin	77	0
bin	78	0
bin	79	0
bin	80	0
bin	81	0
bin	82	0
bin	83	0
statistic scenarioOpp.VPA[14].netw 	"Histogram for total interContact duration"
field count 15
field mean 1577.4666666667
field stddev 754.77090816321
field sum 23662
field sqrsum 45301524
field min 860
field max 2893
attr type  int
bin	-INF	0
bin	-160	0
bin	-139	0
bin	-118	0
bin	-97	0
bin	-76	0
bin	-55	0
bin	-34	0
bin	-13	0
bin	8	0
bin	29	0
bin	50	0
bin	71	0
bin	92	0
bin	113	0
bin	134	0
bin	155	0
bin	176	0
bin	197	0
bin	218	0
bin	239	0
bin	260	0
bin	281	0
bin	302	0
bin	323	0
bin	344	0
bin	365	0
bin	386	0
bin	407	0
bin	428	0
bin	449	0
bin	470	0
bin	491	0
bin	512	0
bin	533	0
bin	554	0
bin	575	0
bin	596	0
bin	617	0
bin	638	0
bin	659	0
bin	680	0
bin	701	0
bin	722	0
bin	743	0
bin	764	0
bin	785	0
bin	806	0
bin	827	0
bin	848	6
bin	869	1
bin	890	0
bin	911	0
bin	932	0
bin	953	0
bin	974	0
bin	995	0
bin	1016	0
bin	1037	0
bin	1058	0
bin	1079	0
bin	1100	0
bin	1121	0
bin	1142	0
bin	1163	0
bin	1184	0
bin	1205	0
bin	1226	0
bin	1247	0
bin	1268	0
bin	1289	0
bin	1310	0
bin	1331	0
bin	1352	0
bin	1373	0
bin	1394	0
bin	1415	0
bin	1436	0
bin	1457	0
bin	1478	0
bin	1499	0
bin	1520	0
bin	1541	0
bin	1562	0
bin	1583	0
bin	1604	0
bin	1625	0
bin	1646	0
bin	1667	0
bin	1688	0
bin	1709	0
bin	1730	3
bin	1751	0
bin	1772	0
bin	1793	0
bin	1814	0
bin	1835	0
bin	1856	0
bin	1877	0
bin	1898	0
bin	1919	0
bin	1940	0
bin	1961	0
bin	1982	0
bin	2003	0
bin	2024	0
bin	2045	0
bin	2066	0
bin	2087	0
bin	2108	0
bin	2129	0
bin	2150	0
bin	2171	0
bin	2192	0
bin	2213	0
bin	2234	0
bin	2255	0
bin	2276	1
bin	2297	1
bin	2318	1
bin	2339	0
bin	2360	0
bin	2381	0
bin	2402	0
bin	2423	0
bin	2444	0
bin	2465	0
bin	2486	0
bin	2507	0
bin	2528	0
bin	2549	0
bin	2570	1
bin	2591	0
bin	2612	0
bin	2633	0
bin	2654	0
bin	2675	0
bin	2696	0
bin	2717	0
bin	2738	0
bin	2759	0
bin	2780	0
bin	2801	0
bin	2822	0
bin	2843	0
bin	2864	0
bin	2885	1
bin	2906	0
bin	2927	0
bin	2948	0
bin	2969	0
bin	2990	0
bin	3011	0
bin	3032	0
bin	3053	0
bin	3074	0
bin	3095	0
bin	3116	0
bin	3137	0
bin	3158	0
bin	3179	0
bin	3200	0
bin	3221	0
bin	3242	0
bin	3263	0
bin	3284	0
bin	3305	0
bin	3326	0
bin	3347	0
bin	3368	0
bin	3389	0
bin	3410	0
bin	3431	0
bin	3452	0
bin	3473	0
bin	3494	0
bin	3515	0
bin	3536	0
bin	3557	0
bin	3578	0
bin	3599	0
bin	3620	0
bin	3641	0
bin	3662	0
bin	3683	0
bin	3704	0
bin	3725	0
bin	3746	0
bin	3767	0
bin	3788	0
bin	3809	0
bin	3830	0
bin	3851	0
bin	3872	0
bin	3893	0
bin	3914	0
