version 2
run General-0-20160125-16:13:45-123736
attr configname General
attr datetime 20160125-16:13:45
attr experiment General
attr inifile prophet.omnetpp.ini
attr iterationvars ""
attr iterationvars2 $repetition=0
attr measurement ""
attr network org.mixim.examples.veins.scenarioOpp
attr processid 123736
attr repetition 0
attr replication #0
attr resultdir results
attr runnumber 0
attr seedset 0

scalar scenarioOpp.node[0].appl 	"# Bundle Sent" 	0
scalar scenarioOpp.node[0].appl 	"# Bundle Received" 	0
scalar scenarioOpp.node[0].netw 	"# L3Sent" 	1507
scalar scenarioOpp.node[0].netw 	"# L3Received" 	1222
scalar scenarioOpp.node[0].netw 	"# of Contacts" 	265
scalar scenarioOpp.node[0].netw 	"# of InterContacts" 	132
scalar scenarioOpp.node[0].netw 	"# Bundles at L3" 	652
statistic scenarioOpp.node[0].netw 	"Histogram for max nbr repeated contact"
field count 58
field mean 2.2758620689655
field stddev 6.4258062595992
field sum 132
field sqrsum 2654
field min 1
field max 50
attr type  int
bin	-INF	0
bin	-24	0
bin	-23	0
bin	-22	0
bin	-21	0
bin	-20	0
bin	-19	0
bin	-18	0
bin	-17	0
bin	-16	0
bin	-15	0
bin	-14	0
bin	-13	0
bin	-12	0
bin	-11	0
bin	-10	0
bin	-9	0
bin	-8	0
bin	-7	0
bin	-6	0
bin	-5	0
bin	-4	0
bin	-3	0
bin	-2	0
bin	-1	0
bin	0	0
bin	1	40
bin	2	12
bin	3	2
bin	4	3
bin	5	0
bin	6	0
bin	7	0
bin	8	0
bin	9	0
bin	10	0
bin	11	0
bin	12	0
bin	13	0
bin	14	0
bin	15	0
bin	16	0
bin	17	0
bin	18	0
bin	19	0
bin	20	0
bin	21	0
bin	22	0
bin	23	0
bin	24	0
bin	25	0
bin	26	0
bin	27	0
bin	28	0
bin	29	0
bin	30	0
bin	31	0
bin	32	0
bin	33	0
bin	34	0
bin	35	0
bin	36	0
bin	37	0
bin	38	0
bin	39	0
bin	40	0
bin	41	0
bin	42	0
bin	43	0
bin	44	0
bin	45	0
bin	46	0
bin	47	0
bin	48	0
bin	49	0
bin	50	1
bin	51	0
bin	52	0
bin	53	0
bin	54	0
bin	55	0
bin	56	0
bin	57	0
bin	58	0
bin	59	0
bin	60	0
bin	61	0
bin	62	0
bin	63	0
bin	64	0
bin	65	0
bin	66	0
bin	67	0
bin	68	0
bin	69	0
bin	70	0
bin	71	0
bin	72	0
bin	73	0
bin	74	0
bin	75	0
scalar scenarioOpp.node[0].netw 	"Bars for #repeated 1" 	58
scalar scenarioOpp.node[0].netw 	"Bars for #repeated 2" 	18
scalar scenarioOpp.node[0].netw 	"Bars for #repeated 3" 	6
scalar scenarioOpp.node[0].netw 	"Bars for #repeated 4" 	4
scalar scenarioOpp.node[0].netw 	"Bars for #repeated 5" 	46
scalar scenarioOpp.node[0].netw 	"Contact CDF LQ1 #repeated 1" 	3
scalar scenarioOpp.node[0].netw 	"Contact CDF G1LQ5 #repeated 1" 	1
scalar scenarioOpp.node[0].netw 	"Contact CDF G5LQ20 #repeated 1" 	51
scalar scenarioOpp.node[0].netw 	"Contact CDF G20LQ50 #repeated 1" 	1
scalar scenarioOpp.node[0].netw 	"Contact CDF G50LQ100 #repeated 1" 	0
scalar scenarioOpp.node[0].netw 	"Contact CDF G100LQ500 #repeated 1" 	0
scalar scenarioOpp.node[0].netw 	"Contact CDF G500 #repeated 1" 	1
scalar scenarioOpp.node[0].netw 	"Contact CDF LQ1 #repeated 2" 	3
scalar scenarioOpp.node[0].netw 	"Contact CDF G1LQ5 #repeated 2" 	0
scalar scenarioOpp.node[0].netw 	"Contact CDF G5LQ20 #repeated 2" 	15
scalar scenarioOpp.node[0].netw 	"Contact CDF G20LQ50 #repeated 2" 	0
scalar scenarioOpp.node[0].netw 	"Contact CDF G50LQ100 #repeated 2" 	0
scalar scenarioOpp.node[0].netw 	"Contact CDF G100LQ500 #repeated 2" 	0
scalar scenarioOpp.node[0].netw 	"Contact CDF G500 #repeated 2" 	0
scalar scenarioOpp.node[0].netw 	"Contact CDF LQ1 #repeated 3" 	1
scalar scenarioOpp.node[0].netw 	"Contact CDF G1LQ5 #repeated 3" 	0
scalar scenarioOpp.node[0].netw 	"Contact CDF G5LQ20 #repeated 3" 	5
scalar scenarioOpp.node[0].netw 	"Contact CDF G20LQ50 #repeated 3" 	0
scalar scenarioOpp.node[0].netw 	"Contact CDF G50LQ100 #repeated 3" 	0
scalar scenarioOpp.node[0].netw 	"Contact CDF G100LQ500 #repeated 3" 	0
scalar scenarioOpp.node[0].netw 	"Contact CDF G500 #repeated 3" 	0
scalar scenarioOpp.node[0].netw 	"Contact CDF LQ1 #repeated 4" 	1
scalar scenarioOpp.node[0].netw 	"Contact CDF G1LQ5 #repeated 4" 	0
scalar scenarioOpp.node[0].netw 	"Contact CDF G5LQ20 #repeated 4" 	3
scalar scenarioOpp.node[0].netw 	"Contact CDF G20LQ50 #repeated 4" 	0
scalar scenarioOpp.node[0].netw 	"Contact CDF G50LQ100 #repeated 4" 	0
scalar scenarioOpp.node[0].netw 	"Contact CDF G100LQ500 #repeated 4" 	0
scalar scenarioOpp.node[0].netw 	"Contact CDF G500 #repeated 4" 	0
scalar scenarioOpp.node[0].netw 	"Contact CDF LQ1 #repeated 5" 	43
scalar scenarioOpp.node[0].netw 	"Contact CDF G1LQ5 #repeated 5" 	0
scalar scenarioOpp.node[0].netw 	"Contact CDF G5LQ20 #repeated 5" 	3
scalar scenarioOpp.node[0].netw 	"Contact CDF G20LQ50 #repeated 5" 	0
scalar scenarioOpp.node[0].netw 	"Contact CDF G50LQ100 #repeated 5" 	0
scalar scenarioOpp.node[0].netw 	"Contact CDF G100LQ500 #repeated 5" 	0
scalar scenarioOpp.node[0].netw 	"Contact CDF G500 #repeated 5" 	0
scalar scenarioOpp.node[0].netw 	"InterContact CDF LQ1 #repeated 1" 	4
scalar scenarioOpp.node[0].netw 	"InterContact CDF G1LQ5 #repeated 1" 	0
scalar scenarioOpp.node[0].netw 	"InterContact CDF G5LQ20 #repeated 1" 	0
scalar scenarioOpp.node[0].netw 	"InterContact CDF G20LQ50 #repeated 1" 	0
scalar scenarioOpp.node[0].netw 	"InterContact CDF G50LQ100 #repeated 1" 	1
scalar scenarioOpp.node[0].netw 	"InterContact CDF G100LQ500 #repeated 1" 	0
scalar scenarioOpp.node[0].netw 	"InterContact CDF G500 #repeated 1" 	39
scalar scenarioOpp.node[0].netw 	"InterContact CDF LQ1 #repeated 2" 	3
scalar scenarioOpp.node[0].netw 	"InterContact CDF G1LQ5 #repeated 2" 	0
scalar scenarioOpp.node[0].netw 	"InterContact CDF G5LQ20 #repeated 2" 	0
scalar scenarioOpp.node[0].netw 	"InterContact CDF G20LQ50 #repeated 2" 	0
scalar scenarioOpp.node[0].netw 	"InterContact CDF G50LQ100 #repeated 2" 	0
scalar scenarioOpp.node[0].netw 	"InterContact CDF G100LQ500 #repeated 2" 	0
scalar scenarioOpp.node[0].netw 	"InterContact CDF G500 #repeated 2" 	13
scalar scenarioOpp.node[0].netw 	"InterContact CDF LQ1 #repeated 3" 	1
scalar scenarioOpp.node[0].netw 	"InterContact CDF G1LQ5 #repeated 3" 	0
scalar scenarioOpp.node[0].netw 	"InterContact CDF G5LQ20 #repeated 3" 	0
scalar scenarioOpp.node[0].netw 	"InterContact CDF G20LQ50 #repeated 3" 	0
scalar scenarioOpp.node[0].netw 	"InterContact CDF G50LQ100 #repeated 3" 	1
scalar scenarioOpp.node[0].netw 	"InterContact CDF G100LQ500 #repeated 3" 	0
scalar scenarioOpp.node[0].netw 	"InterContact CDF G500 #repeated 3" 	2
scalar scenarioOpp.node[0].netw 	"InterContact CDF LQ1 #repeated 4" 	1
scalar scenarioOpp.node[0].netw 	"InterContact CDF G1LQ5 #repeated 4" 	0
scalar scenarioOpp.node[0].netw 	"InterContact CDF G5LQ20 #repeated 4" 	0
scalar scenarioOpp.node[0].netw 	"InterContact CDF G20LQ50 #repeated 4" 	0
scalar scenarioOpp.node[0].netw 	"InterContact CDF G50LQ100 #repeated 4" 	0
scalar scenarioOpp.node[0].netw 	"InterContact CDF G100LQ500 #repeated 4" 	0
scalar scenarioOpp.node[0].netw 	"InterContact CDF G500 #repeated 4" 	2
scalar scenarioOpp.node[0].netw 	"InterContact CDF LQ1 #repeated 5" 	38
scalar scenarioOpp.node[0].netw 	"InterContact CDF G1LQ5 #repeated 5" 	0
scalar scenarioOpp.node[0].netw 	"InterContact CDF G5LQ20 #repeated 5" 	0
scalar scenarioOpp.node[0].netw 	"InterContact CDF G20LQ50 #repeated 5" 	0
scalar scenarioOpp.node[0].netw 	"InterContact CDF G50LQ100 #repeated 5" 	6
scalar scenarioOpp.node[0].netw 	"InterContact CDF G100LQ500 #repeated 5" 	0
scalar scenarioOpp.node[0].netw 	"InterContact CDF G500 #repeated 5" 	2
statistic scenarioOpp.node[0].netw 	"Histogram for total contact duration"
field count 57
field mean 26.824561403509
field stddev 78.654788884952
field sum 1529
field sqrsum 387463
field min 9
field max 603
attr type  int
bin	-INF	0
bin	-288	0
bin	-282	0
bin	-276	0
bin	-270	0
bin	-264	0
bin	-258	0
bin	-252	0
bin	-246	0
bin	-240	0
bin	-234	0
bin	-228	0
bin	-222	0
bin	-216	0
bin	-210	0
bin	-204	0
bin	-198	0
bin	-192	0
bin	-186	0
bin	-180	0
bin	-174	0
bin	-168	0
bin	-162	0
bin	-156	0
bin	-150	0
bin	-144	0
bin	-138	0
bin	-132	0
bin	-126	0
bin	-120	0
bin	-114	0
bin	-108	0
bin	-102	0
bin	-96	0
bin	-90	0
bin	-84	0
bin	-78	0
bin	-72	0
bin	-66	0
bin	-60	0
bin	-54	0
bin	-48	0
bin	-42	0
bin	-36	0
bin	-30	0
bin	-24	0
bin	-18	0
bin	-12	0
bin	-6	0
bin	0	0
bin	6	30
bin	12	3
bin	18	17
bin	24	2
bin	30	0
bin	36	2
bin	42	0
bin	48	0
bin	54	1
bin	60	0
bin	66	0
bin	72	0
bin	78	1
bin	84	0
bin	90	0
bin	96	0
bin	102	0
bin	108	0
bin	114	0
bin	120	0
bin	126	0
bin	132	0
bin	138	0
bin	144	0
bin	150	0
bin	156	0
bin	162	0
bin	168	0
bin	174	0
bin	180	0
bin	186	0
bin	192	0
bin	198	0
bin	204	0
bin	210	0
bin	216	0
bin	222	0
bin	228	0
bin	234	0
bin	240	0
bin	246	0
bin	252	0
bin	258	0
bin	264	0
bin	270	0
bin	276	0
bin	282	0
bin	288	0
bin	294	0
bin	300	0
bin	306	0
bin	312	0
bin	318	0
bin	324	0
bin	330	0
bin	336	0
bin	342	0
bin	348	0
bin	354	0
bin	360	0
bin	366	0
bin	372	0
bin	378	0
bin	384	0
bin	390	0
bin	396	0
bin	402	0
bin	408	0
bin	414	0
bin	420	0
bin	426	0
bin	432	0
bin	438	0
bin	444	0
bin	450	0
bin	456	0
bin	462	0
bin	468	0
bin	474	0
bin	480	0
bin	486	0
bin	492	0
bin	498	0
bin	504	0
bin	510	0
bin	516	0
bin	522	0
bin	528	0
bin	534	0
bin	540	0
bin	546	0
bin	552	0
bin	558	0
bin	564	0
bin	570	0
bin	576	0
bin	582	0
bin	588	0
bin	594	0
bin	600	1
bin	606	0
bin	612	0
bin	618	0
bin	624	0
bin	630	0
bin	636	0
bin	642	0
bin	648	0
bin	654	0
bin	660	0
bin	666	0
bin	672	0
bin	678	0
bin	684	0
bin	690	0
bin	696	0
bin	702	0
bin	708	0
bin	714	0
bin	720	0
bin	726	0
bin	732	0
bin	738	0
bin	744	0
bin	750	0
bin	756	0
bin	762	0
bin	768	0
bin	774	0
bin	780	0
bin	786	0
bin	792	0
bin	798	0
bin	804	0
bin	810	0
bin	816	0
bin	822	0
bin	828	0
bin	834	0
bin	840	0
bin	846	0
bin	852	0
bin	858	0
bin	864	0
bin	870	0
bin	876	0
bin	882	0
bin	888	0
bin	894	0
bin	900	0
statistic scenarioOpp.node[0].netw 	"Histogram for total interContact duration"
field count 58
field mean 1225.6896551724
field stddev 818.00866908495
field sum 71090
field sqrsum 125275154
field min 140
field max 3208
attr type  int
bin	-INF	0
bin	-1395	0
bin	-1364	0
bin	-1333	0
bin	-1302	0
bin	-1271	0
bin	-1240	0
bin	-1209	0
bin	-1178	0
bin	-1147	0
bin	-1116	0
bin	-1085	0
bin	-1054	0
bin	-1023	0
bin	-992	0
bin	-961	0
bin	-930	0
bin	-899	0
bin	-868	0
bin	-837	0
bin	-806	0
bin	-775	0
bin	-744	0
bin	-713	0
bin	-682	0
bin	-651	0
bin	-620	0
bin	-589	0
bin	-558	0
bin	-527	0
bin	-496	0
bin	-465	0
bin	-434	0
bin	-403	0
bin	-372	0
bin	-341	0
bin	-310	0
bin	-279	0
bin	-248	0
bin	-217	0
bin	-186	0
bin	-155	0
bin	-124	0
bin	-93	0
bin	-62	0
bin	-31	0
bin	0	0
bin	31	0
bin	62	0
bin	93	0
bin	124	1
bin	155	0
bin	186	0
bin	217	0
bin	248	1
bin	279	5
bin	310	0
bin	341	0
bin	372	0
bin	403	3
bin	434	1
bin	465	0
bin	496	0
bin	527	0
bin	558	4
bin	589	2
bin	620	0
bin	651	0
bin	682	0
bin	713	6
bin	744	0
bin	775	0
bin	806	0
bin	837	1
bin	868	7
bin	899	0
bin	930	0
bin	961	0
bin	992	2
bin	1023	1
bin	1054	0
bin	1085	0
bin	1116	0
bin	1147	1
bin	1178	0
bin	1209	0
bin	1240	0
bin	1271	0
bin	1302	3
bin	1333	0
bin	1364	0
bin	1395	0
bin	1426	0
bin	1457	1
bin	1488	0
bin	1519	0
bin	1550	0
bin	1581	2
bin	1612	0
bin	1643	0
bin	1674	0
bin	1705	0
bin	1736	1
bin	1767	0
bin	1798	0
bin	1829	0
bin	1860	0
bin	1891	1
bin	1922	0
bin	1953	0
bin	1984	0
bin	2015	1
bin	2046	2
bin	2077	0
bin	2108	1
bin	2139	0
bin	2170	2
bin	2201	2
bin	2232	0
bin	2263	0
bin	2294	0
bin	2325	1
bin	2356	0
bin	2387	0
bin	2418	0
bin	2449	0
bin	2480	1
bin	2511	0
bin	2542	0
bin	2573	0
bin	2604	1
bin	2635	1
bin	2666	0
bin	2697	0
bin	2728	0
bin	2759	0
bin	2790	1
bin	2821	0
bin	2852	0
bin	2883	0
bin	2914	1
bin	2945	0
bin	2976	0
bin	3007	0
bin	3038	0
bin	3069	0
bin	3100	0
bin	3131	0
bin	3162	0
bin	3193	1
bin	3224	0
bin	3255	0
bin	3286	0
bin	3317	0
bin	3348	0
bin	3379	0
bin	3410	0
bin	3441	0
bin	3472	0
bin	3503	0
bin	3534	0
bin	3565	0
bin	3596	0
bin	3627	0
bin	3658	0
bin	3689	0
bin	3720	0
bin	3751	0
bin	3782	0
bin	3813	0
bin	3844	0
bin	3875	0
bin	3906	0
bin	3937	0
bin	3968	0
bin	3999	0
bin	4030	0
bin	4061	0
bin	4092	0
bin	4123	0
bin	4154	0
bin	4185	0
bin	4216	0
bin	4247	0
bin	4278	0
bin	4309	0
bin	4340	0
bin	4371	0
bin	4402	0
bin	4433	0
bin	4464	0
bin	4495	0
bin	4526	0
bin	4557	0
bin	4588	0
bin	4619	0
bin	4650	0
bin	4681	0
bin	4712	0
bin	4743	0
scalar scenarioOpp.node[0].mobility 	Community 	0
scalar scenarioOpp.node[14].appl 	"# Bundle Sent" 	0
scalar scenarioOpp.node[14].appl 	"# Bundle Received" 	0
scalar scenarioOpp.node[14].netw 	"# L3Sent" 	2346
scalar scenarioOpp.node[14].netw 	"# L3Received" 	1449
scalar scenarioOpp.node[14].netw 	"# of Contacts" 	451
scalar scenarioOpp.node[14].netw 	"# of InterContacts" 	289
scalar scenarioOpp.node[14].netw 	"# Bundles at L3" 	645
statistic scenarioOpp.node[14].netw 	"Histogram for max nbr repeated contact"
field count 81
field mean 3.5679012345679
field stddev 14.479242272651
field sum 289
field sqrsum 17803
field min 1
field max 131
attr type  int
bin	-INF	0
bin	-64	0
bin	-62	0
bin	-60	0
bin	-58	0
bin	-56	0
bin	-54	0
bin	-52	0
bin	-50	0
bin	-48	0
bin	-46	0
bin	-44	0
bin	-42	0
bin	-40	0
bin	-38	0
bin	-36	0
bin	-34	0
bin	-32	0
bin	-30	0
bin	-28	0
bin	-26	0
bin	-24	0
bin	-22	0
bin	-20	0
bin	-18	0
bin	-16	0
bin	-14	0
bin	-12	0
bin	-10	0
bin	-8	0
bin	-6	0
bin	-4	0
bin	-2	0
bin	0	39
bin	2	35
bin	4	4
bin	6	0
bin	8	0
bin	10	1
bin	12	0
bin	14	0
bin	16	1
bin	18	0
bin	20	0
bin	22	0
bin	24	0
bin	26	0
bin	28	0
bin	30	0
bin	32	0
bin	34	0
bin	36	0
bin	38	0
bin	40	0
bin	42	0
bin	44	0
bin	46	0
bin	48	0
bin	50	0
bin	52	0
bin	54	0
bin	56	0
bin	58	0
bin	60	0
bin	62	0
bin	64	0
bin	66	0
bin	68	0
bin	70	0
bin	72	0
bin	74	0
bin	76	0
bin	78	0
bin	80	0
bin	82	0
bin	84	0
bin	86	0
bin	88	0
bin	90	0
bin	92	0
bin	94	0
bin	96	0
bin	98	0
bin	100	0
bin	102	0
bin	104	0
bin	106	0
bin	108	0
bin	110	0
bin	112	0
bin	114	0
bin	116	0
bin	118	0
bin	120	0
bin	122	0
bin	124	0
bin	126	0
bin	128	0
bin	130	1
bin	132	0
bin	134	0
bin	136	0
bin	138	0
bin	140	0
bin	142	0
bin	144	0
bin	146	0
bin	148	0
bin	150	0
bin	152	0
bin	154	0
bin	156	0
bin	158	0
bin	160	0
bin	162	0
bin	164	0
bin	166	0
bin	168	0
bin	170	0
bin	172	0
bin	174	0
bin	176	0
bin	178	0
bin	180	0
bin	182	0
bin	184	0
bin	186	0
bin	188	0
bin	190	0
bin	192	0
bin	194	0
bin	196	0
scalar scenarioOpp.node[14].netw 	"Bars for #repeated 1" 	81
scalar scenarioOpp.node[14].netw 	"Bars for #repeated 2" 	42
scalar scenarioOpp.node[14].netw 	"Bars for #repeated 3" 	12
scalar scenarioOpp.node[14].netw 	"Bars for #repeated 4" 	7
scalar scenarioOpp.node[14].netw 	"Bars for #repeated 5" 	147
scalar scenarioOpp.node[14].netw 	"Contact CDF LQ1 #repeated 1" 	3
scalar scenarioOpp.node[14].netw 	"Contact CDF G1LQ5 #repeated 1" 	0
scalar scenarioOpp.node[14].netw 	"Contact CDF G5LQ20 #repeated 1" 	70
scalar scenarioOpp.node[14].netw 	"Contact CDF G20LQ50 #repeated 1" 	1
scalar scenarioOpp.node[14].netw 	"Contact CDF G50LQ100 #repeated 1" 	0
scalar scenarioOpp.node[14].netw 	"Contact CDF G100LQ500 #repeated 1" 	0
scalar scenarioOpp.node[14].netw 	"Contact CDF G500 #repeated 1" 	1
scalar scenarioOpp.node[14].netw 	"Contact CDF LQ1 #repeated 2" 	0
scalar scenarioOpp.node[14].netw 	"Contact CDF G1LQ5 #repeated 2" 	1
scalar scenarioOpp.node[14].netw 	"Contact CDF G5LQ20 #repeated 2" 	38
scalar scenarioOpp.node[14].netw 	"Contact CDF G20LQ50 #repeated 2" 	0
scalar scenarioOpp.node[14].netw 	"Contact CDF G50LQ100 #repeated 2" 	0
scalar scenarioOpp.node[14].netw 	"Contact CDF G100LQ500 #repeated 2" 	0
scalar scenarioOpp.node[14].netw 	"Contact CDF G500 #repeated 2" 	0
scalar scenarioOpp.node[14].netw 	"Contact CDF LQ1 #repeated 3" 	3
scalar scenarioOpp.node[14].netw 	"Contact CDF G1LQ5 #repeated 3" 	0
scalar scenarioOpp.node[14].netw 	"Contact CDF G5LQ20 #repeated 3" 	8
scalar scenarioOpp.node[14].netw 	"Contact CDF G20LQ50 #repeated 3" 	1
scalar scenarioOpp.node[14].netw 	"Contact CDF G50LQ100 #repeated 3" 	0
scalar scenarioOpp.node[14].netw 	"Contact CDF G100LQ500 #repeated 3" 	0
scalar scenarioOpp.node[14].netw 	"Contact CDF G500 #repeated 3" 	0
scalar scenarioOpp.node[14].netw 	"Contact CDF LQ1 #repeated 4" 	2
scalar scenarioOpp.node[14].netw 	"Contact CDF G1LQ5 #repeated 4" 	0
scalar scenarioOpp.node[14].netw 	"Contact CDF G5LQ20 #repeated 4" 	3
scalar scenarioOpp.node[14].netw 	"Contact CDF G20LQ50 #repeated 4" 	2
scalar scenarioOpp.node[14].netw 	"Contact CDF G50LQ100 #repeated 4" 	0
scalar scenarioOpp.node[14].netw 	"Contact CDF G100LQ500 #repeated 4" 	0
scalar scenarioOpp.node[14].netw 	"Contact CDF G500 #repeated 4" 	0
scalar scenarioOpp.node[14].netw 	"Contact CDF LQ1 #repeated 5" 	135
scalar scenarioOpp.node[14].netw 	"Contact CDF G1LQ5 #repeated 5" 	0
scalar scenarioOpp.node[14].netw 	"Contact CDF G5LQ20 #repeated 5" 	10
scalar scenarioOpp.node[14].netw 	"Contact CDF G20LQ50 #repeated 5" 	1
scalar scenarioOpp.node[14].netw 	"Contact CDF G50LQ100 #repeated 5" 	0
scalar scenarioOpp.node[14].netw 	"Contact CDF G100LQ500 #repeated 5" 	0
scalar scenarioOpp.node[14].netw 	"Contact CDF G500 #repeated 5" 	0
scalar scenarioOpp.node[14].netw 	"InterContact CDF LQ1 #repeated 1" 	1
scalar scenarioOpp.node[14].netw 	"InterContact CDF G1LQ5 #repeated 1" 	0
scalar scenarioOpp.node[14].netw 	"InterContact CDF G5LQ20 #repeated 1" 	0
scalar scenarioOpp.node[14].netw 	"InterContact CDF G20LQ50 #repeated 1" 	0
scalar scenarioOpp.node[14].netw 	"InterContact CDF G50LQ100 #repeated 1" 	0
scalar scenarioOpp.node[14].netw 	"InterContact CDF G100LQ500 #repeated 1" 	0
scalar scenarioOpp.node[14].netw 	"InterContact CDF G500 #repeated 1" 	53
scalar scenarioOpp.node[14].netw 	"InterContact CDF LQ1 #repeated 2" 	1
scalar scenarioOpp.node[14].netw 	"InterContact CDF G1LQ5 #repeated 2" 	0
scalar scenarioOpp.node[14].netw 	"InterContact CDF G5LQ20 #repeated 2" 	0
scalar scenarioOpp.node[14].netw 	"InterContact CDF G20LQ50 #repeated 2" 	0
scalar scenarioOpp.node[14].netw 	"InterContact CDF G50LQ100 #repeated 2" 	0
scalar scenarioOpp.node[14].netw 	"InterContact CDF G100LQ500 #repeated 2" 	0
scalar scenarioOpp.node[14].netw 	"InterContact CDF G500 #repeated 2" 	29
scalar scenarioOpp.node[14].netw 	"InterContact CDF LQ1 #repeated 3" 	2
scalar scenarioOpp.node[14].netw 	"InterContact CDF G1LQ5 #repeated 3" 	0
scalar scenarioOpp.node[14].netw 	"InterContact CDF G5LQ20 #repeated 3" 	0
scalar scenarioOpp.node[14].netw 	"InterContact CDF G20LQ50 #repeated 3" 	0
scalar scenarioOpp.node[14].netw 	"InterContact CDF G50LQ100 #repeated 3" 	1
scalar scenarioOpp.node[14].netw 	"InterContact CDF G100LQ500 #repeated 3" 	0
scalar scenarioOpp.node[14].netw 	"InterContact CDF G500 #repeated 3" 	5
scalar scenarioOpp.node[14].netw 	"InterContact CDF LQ1 #repeated 4" 	2
scalar scenarioOpp.node[14].netw 	"InterContact CDF G1LQ5 #repeated 4" 	0
scalar scenarioOpp.node[14].netw 	"InterContact CDF G5LQ20 #repeated 4" 	0
scalar scenarioOpp.node[14].netw 	"InterContact CDF G20LQ50 #repeated 4" 	0
scalar scenarioOpp.node[14].netw 	"InterContact CDF G50LQ100 #repeated 4" 	1
scalar scenarioOpp.node[14].netw 	"InterContact CDF G100LQ500 #repeated 4" 	0
scalar scenarioOpp.node[14].netw 	"InterContact CDF G500 #repeated 4" 	4
scalar scenarioOpp.node[14].netw 	"InterContact CDF LQ1 #repeated 5" 	137
scalar scenarioOpp.node[14].netw 	"InterContact CDF G1LQ5 #repeated 5" 	0
scalar scenarioOpp.node[14].netw 	"InterContact CDF G5LQ20 #repeated 5" 	0
scalar scenarioOpp.node[14].netw 	"InterContact CDF G20LQ50 #repeated 5" 	0
scalar scenarioOpp.node[14].netw 	"InterContact CDF G50LQ100 #repeated 5" 	4
scalar scenarioOpp.node[14].netw 	"InterContact CDF G100LQ500 #repeated 5" 	0
scalar scenarioOpp.node[14].netw 	"InterContact CDF G500 #repeated 5" 	3
statistic scenarioOpp.node[14].netw 	"Histogram for total contact duration"
field count 80
field mean 49.8375
field stddev 99.595059069912
field sum 3987
field sqrsum 982317
field min 0
field max 622
attr type  int
bin	-INF	0
bin	-312	0
bin	-305	0
bin	-298	0
bin	-291	0
bin	-284	0
bin	-277	0
bin	-270	0
bin	-263	0
bin	-256	0
bin	-249	0
bin	-242	0
bin	-235	0
bin	-228	0
bin	-221	0
bin	-214	0
bin	-207	0
bin	-200	0
bin	-193	0
bin	-186	0
bin	-179	0
bin	-172	0
bin	-165	0
bin	-158	0
bin	-151	0
bin	-144	0
bin	-137	0
bin	-130	0
bin	-123	0
bin	-116	0
bin	-109	0
bin	-102	0
bin	-95	0
bin	-88	0
bin	-81	0
bin	-74	0
bin	-67	0
bin	-60	0
bin	-53	0
bin	-46	0
bin	-39	0
bin	-32	0
bin	-25	0
bin	-18	0
bin	-11	0
bin	-4	1
bin	3	24
bin	10	12
bin	17	24
bin	24	3
bin	31	0
bin	38	2
bin	45	0
bin	52	1
bin	59	0
bin	66	0
bin	73	2
bin	80	0
bin	87	0
bin	94	0
bin	101	2
bin	108	0
bin	115	0
bin	122	0
bin	129	0
bin	136	0
bin	143	0
bin	150	0
bin	157	1
bin	164	0
bin	171	1
bin	178	1
bin	185	0
bin	192	1
bin	199	0
bin	206	0
bin	213	0
bin	220	0
bin	227	0
bin	234	0
bin	241	0
bin	248	0
bin	255	0
bin	262	0
bin	269	0
bin	276	0
bin	283	0
bin	290	0
bin	297	0
bin	304	1
bin	311	0
bin	318	1
bin	325	1
bin	332	1
bin	339	0
bin	346	0
bin	353	0
bin	360	0
bin	367	0
bin	374	0
bin	381	0
bin	388	0
bin	395	0
bin	402	0
bin	409	0
bin	416	0
bin	423	0
bin	430	0
bin	437	0
bin	444	0
bin	451	0
bin	458	0
bin	465	0
bin	472	0
bin	479	0
bin	486	0
bin	493	0
bin	500	0
bin	507	0
bin	514	0
bin	521	0
bin	528	0
bin	535	0
bin	542	0
bin	549	0
bin	556	0
bin	563	0
bin	570	0
bin	577	0
bin	584	0
bin	591	0
bin	598	0
bin	605	0
bin	612	0
bin	619	1
bin	626	0
bin	633	0
bin	640	0
bin	647	0
bin	654	0
bin	661	0
bin	668	0
bin	675	0
bin	682	0
bin	689	0
bin	696	0
bin	703	0
bin	710	0
bin	717	0
bin	724	0
bin	731	0
bin	738	0
bin	745	0
bin	752	0
bin	759	0
bin	766	0
bin	773	0
bin	780	0
bin	787	0
bin	794	0
bin	801	0
bin	808	0
bin	815	0
bin	822	0
bin	829	0
bin	836	0
bin	843	0
bin	850	0
bin	857	0
bin	864	0
bin	871	0
bin	878	0
bin	885	0
bin	892	0
bin	899	0
bin	906	0
bin	913	0
bin	920	0
bin	927	0
bin	934	0
statistic scenarioOpp.node[14].netw 	"Histogram for total interContact duration"
field count 81
field mean 1490.8148148148
field stddev 781.66698649603
field sum 120756
field sqrsum 228905096
field min 1
field max 3164
attr type  int
bin	-INF	0
bin	-1585	0
bin	-1553	0
bin	-1521	0
bin	-1489	0
bin	-1457	0
bin	-1425	0
bin	-1393	0
bin	-1361	0
bin	-1329	0
bin	-1297	0
bin	-1265	0
bin	-1233	0
bin	-1201	0
bin	-1169	0
bin	-1137	0
bin	-1105	0
bin	-1073	0
bin	-1041	0
bin	-1009	0
bin	-977	0
bin	-945	0
bin	-913	0
bin	-881	0
bin	-849	0
bin	-817	0
bin	-785	0
bin	-753	0
bin	-721	0
bin	-689	0
bin	-657	0
bin	-625	0
bin	-593	0
bin	-561	0
bin	-529	0
bin	-497	0
bin	-465	0
bin	-433	0
bin	-401	0
bin	-369	0
bin	-337	0
bin	-305	0
bin	-273	0
bin	-241	0
bin	-209	0
bin	-177	0
bin	-145	0
bin	-113	0
bin	-81	0
bin	-49	0
bin	-17	1
bin	15	0
bin	47	0
bin	79	0
bin	111	1
bin	143	0
bin	175	0
bin	207	0
bin	239	0
bin	271	4
bin	303	0
bin	335	0
bin	367	0
bin	399	1
bin	431	2
bin	463	0
bin	495	0
bin	527	0
bin	559	6
bin	591	0
bin	623	0
bin	655	1
bin	687	1
bin	719	1
bin	751	0
bin	783	0
bin	815	0
bin	847	6
bin	879	0
bin	911	0
bin	943	0
bin	975	0
bin	1007	6
bin	1039	0
bin	1071	0
bin	1103	0
bin	1135	2
bin	1167	1
bin	1199	0
bin	1231	0
bin	1263	0
bin	1295	2
bin	1327	0
bin	1359	0
bin	1391	0
bin	1423	0
bin	1455	2
bin	1487	0
bin	1519	0
bin	1551	1
bin	1583	10
bin	1615	2
bin	1647	0
bin	1679	0
bin	1711	0
bin	1743	4
bin	1775	0
bin	1807	0
bin	1839	0
bin	1871	1
bin	1903	1
bin	1935	0
bin	1967	0
bin	1999	2
bin	2031	4
bin	2063	0
bin	2095	0
bin	2127	0
bin	2159	0
bin	2191	2
bin	2223	0
bin	2255	0
bin	2287	1
bin	2319	2
bin	2351	1
bin	2383	0
bin	2415	0
bin	2447	3
bin	2479	3
bin	2511	0
bin	2543	1
bin	2575	0
bin	2607	1
bin	2639	0
bin	2671	0
bin	2703	0
bin	2735	0
bin	2767	2
bin	2799	0
bin	2831	1
bin	2863	0
bin	2895	0
bin	2927	1
bin	2959	0
bin	2991	0
bin	3023	0
bin	3055	0
bin	3087	0
bin	3119	0
bin	3151	1
bin	3183	0
bin	3215	0
bin	3247	0
bin	3279	0
bin	3311	0
bin	3343	0
bin	3375	0
bin	3407	0
bin	3439	0
bin	3471	0
bin	3503	0
bin	3535	0
bin	3567	0
bin	3599	0
bin	3631	0
bin	3663	0
bin	3695	0
bin	3727	0
bin	3759	0
bin	3791	0
bin	3823	0
bin	3855	0
bin	3887	0
bin	3919	0
bin	3951	0
bin	3983	0
bin	4015	0
bin	4047	0
bin	4079	0
bin	4111	0
bin	4143	0
bin	4175	0
bin	4207	0
bin	4239	0
bin	4271	0
bin	4303	0
bin	4335	0
bin	4367	0
bin	4399	0
bin	4431	0
bin	4463	0
bin	4495	0
bin	4527	0
bin	4559	0
bin	4591	0
bin	4623	0
bin	4655	0
bin	4687	0
bin	4719	0
bin	4751	0
scalar scenarioOpp.node[14].mobility 	Community 	0
scalar scenarioOpp.node[140].appl 	"# Bundle Sent" 	0
scalar scenarioOpp.node[140].appl 	"# Bundle Received" 	0
scalar scenarioOpp.node[140].netw 	"# L3Sent" 	921
scalar scenarioOpp.node[140].netw 	"# L3Received" 	923
scalar scenarioOpp.node[140].netw 	"# of Contacts" 	166
scalar scenarioOpp.node[140].netw 	"# of InterContacts" 	51
scalar scenarioOpp.node[140].netw 	"# Bundles at L3" 	528
statistic scenarioOpp.node[140].netw 	"Histogram for max nbr repeated contact"
field count 38
field mean 1.3421052631579
field stddev 0.66885605405994
field sum 51
field sqrsum 85
field min 1
field max 3
attr type  int
bin	-INF	0
bin	0	0
bin	1	29
bin	2	5
bin	3	4
bin	4	0
scalar scenarioOpp.node[140].netw 	"Bars for #repeated 1" 	38
scalar scenarioOpp.node[140].netw 	"Bars for #repeated 2" 	9
scalar scenarioOpp.node[140].netw 	"Bars for #repeated 3" 	4
scalar scenarioOpp.node[140].netw 	"Bars for #repeated 4" 	0
scalar scenarioOpp.node[140].netw 	"Bars for #repeated 5" 	0
scalar scenarioOpp.node[140].netw 	"Contact CDF LQ1 #repeated 1" 	1
scalar scenarioOpp.node[140].netw 	"Contact CDF G1LQ5 #repeated 1" 	1
scalar scenarioOpp.node[140].netw 	"Contact CDF G5LQ20 #repeated 1" 	32
scalar scenarioOpp.node[140].netw 	"Contact CDF G20LQ50 #repeated 1" 	2
scalar scenarioOpp.node[140].netw 	"Contact CDF G50LQ100 #repeated 1" 	0
scalar scenarioOpp.node[140].netw 	"Contact CDF G100LQ500 #repeated 1" 	0
scalar scenarioOpp.node[140].netw 	"Contact CDF G500 #repeated 1" 	0
scalar scenarioOpp.node[140].netw 	"Contact CDF LQ1 #repeated 2" 	3
scalar scenarioOpp.node[140].netw 	"Contact CDF G1LQ5 #repeated 2" 	0
scalar scenarioOpp.node[140].netw 	"Contact CDF G5LQ20 #repeated 2" 	5
scalar scenarioOpp.node[140].netw 	"Contact CDF G20LQ50 #repeated 2" 	1
scalar scenarioOpp.node[140].netw 	"Contact CDF G50LQ100 #repeated 2" 	0
scalar scenarioOpp.node[140].netw 	"Contact CDF G100LQ500 #repeated 2" 	0
scalar scenarioOpp.node[140].netw 	"Contact CDF G500 #repeated 2" 	0
scalar scenarioOpp.node[140].netw 	"Contact CDF LQ1 #repeated 3" 	1
scalar scenarioOpp.node[140].netw 	"Contact CDF G1LQ5 #repeated 3" 	1
scalar scenarioOpp.node[140].netw 	"Contact CDF G5LQ20 #repeated 3" 	2
scalar scenarioOpp.node[140].netw 	"Contact CDF G20LQ50 #repeated 3" 	0
scalar scenarioOpp.node[140].netw 	"Contact CDF G50LQ100 #repeated 3" 	0
scalar scenarioOpp.node[140].netw 	"Contact CDF G100LQ500 #repeated 3" 	0
scalar scenarioOpp.node[140].netw 	"Contact CDF G500 #repeated 3" 	0
scalar scenarioOpp.node[140].netw 	"InterContact CDF LQ1 #repeated 1" 	2
scalar scenarioOpp.node[140].netw 	"InterContact CDF G1LQ5 #repeated 1" 	0
scalar scenarioOpp.node[140].netw 	"InterContact CDF G5LQ20 #repeated 1" 	0
scalar scenarioOpp.node[140].netw 	"InterContact CDF G20LQ50 #repeated 1" 	0
scalar scenarioOpp.node[140].netw 	"InterContact CDF G50LQ100 #repeated 1" 	0
scalar scenarioOpp.node[140].netw 	"InterContact CDF G100LQ500 #repeated 1" 	0
scalar scenarioOpp.node[140].netw 	"InterContact CDF G500 #repeated 1" 	20
scalar scenarioOpp.node[140].netw 	"InterContact CDF LQ1 #repeated 2" 	2
scalar scenarioOpp.node[140].netw 	"InterContact CDF G1LQ5 #repeated 2" 	0
scalar scenarioOpp.node[140].netw 	"InterContact CDF G5LQ20 #repeated 2" 	0
scalar scenarioOpp.node[140].netw 	"InterContact CDF G20LQ50 #repeated 2" 	0
scalar scenarioOpp.node[140].netw 	"InterContact CDF G50LQ100 #repeated 2" 	0
scalar scenarioOpp.node[140].netw 	"InterContact CDF G100LQ500 #repeated 2" 	0
scalar scenarioOpp.node[140].netw 	"InterContact CDF G500 #repeated 2" 	0
scalar scenarioOpp.node[140].netw 	"InterContact CDF LQ1 #repeated 3" 	2
scalar scenarioOpp.node[140].netw 	"InterContact CDF G1LQ5 #repeated 3" 	0
scalar scenarioOpp.node[140].netw 	"InterContact CDF G5LQ20 #repeated 3" 	0
scalar scenarioOpp.node[140].netw 	"InterContact CDF G20LQ50 #repeated 3" 	0
scalar scenarioOpp.node[140].netw 	"InterContact CDF G50LQ100 #repeated 3" 	0
scalar scenarioOpp.node[140].netw 	"InterContact CDF G100LQ500 #repeated 3" 	0
scalar scenarioOpp.node[140].netw 	"InterContact CDF G500 #repeated 3" 	0
statistic scenarioOpp.node[140].netw 	"Histogram for total contact duration"
field count 37
field mean 17.972972972973
field stddev 25.437817960324
field sum 665
field sqrsum 35247
field min 3
field max 159
attr type  int
bin	-INF	0
bin	-75	0
bin	-73	0
bin	-71	0
bin	-69	0
bin	-67	0
bin	-65	0
bin	-63	0
bin	-61	0
bin	-59	0
bin	-57	0
bin	-55	0
bin	-53	0
bin	-51	0
bin	-49	0
bin	-47	0
bin	-45	0
bin	-43	0
bin	-41	0
bin	-39	0
bin	-37	0
bin	-35	0
bin	-33	0
bin	-31	0
bin	-29	0
bin	-27	0
bin	-25	0
bin	-23	0
bin	-21	0
bin	-19	0
bin	-17	0
bin	-15	0
bin	-13	0
bin	-11	0
bin	-9	0
bin	-7	0
bin	-5	0
bin	-3	0
bin	-1	0
bin	1	0
bin	3	1
bin	5	1
bin	7	0
bin	9	16
bin	11	5
bin	13	4
bin	15	1
bin	17	0
bin	19	3
bin	21	1
bin	23	0
bin	25	0
bin	27	2
bin	29	0
bin	31	0
bin	33	0
bin	35	0
bin	37	0
bin	39	1
bin	41	0
bin	43	0
bin	45	0
bin	47	1
bin	49	0
bin	51	0
bin	53	0
bin	55	0
bin	57	0
bin	59	0
bin	61	0
bin	63	0
bin	65	0
bin	67	0
bin	69	0
bin	71	0
bin	73	0
bin	75	0
bin	77	0
bin	79	0
bin	81	0
bin	83	0
bin	85	0
bin	87	0
bin	89	0
bin	91	0
bin	93	0
bin	95	0
bin	97	0
bin	99	0
bin	101	0
bin	103	0
bin	105	0
bin	107	0
bin	109	0
bin	111	0
bin	113	0
bin	115	0
bin	117	0
bin	119	0
bin	121	0
bin	123	0
bin	125	0
bin	127	0
bin	129	0
bin	131	0
bin	133	0
bin	135	0
bin	137	0
bin	139	0
bin	141	0
bin	143	0
bin	145	0
bin	147	0
bin	149	0
bin	151	0
bin	153	0
bin	155	0
bin	157	0
bin	159	1
bin	161	0
bin	163	0
bin	165	0
bin	167	0
bin	169	0
bin	171	0
bin	173	0
bin	175	0
bin	177	0
bin	179	0
bin	181	0
bin	183	0
bin	185	0
bin	187	0
bin	189	0
bin	191	0
bin	193	0
bin	195	0
bin	197	0
bin	199	0
bin	201	0
bin	203	0
bin	205	0
bin	207	0
bin	209	0
bin	211	0
bin	213	0
bin	215	0
bin	217	0
bin	219	0
bin	221	0
bin	223	0
bin	225	0
bin	227	0
bin	229	0
bin	231	0
bin	233	0
bin	235	0
bin	237	0
statistic scenarioOpp.node[140].netw 	"Histogram for total interContact duration"
field count 38
field mean 646.97368421053
field stddev 355.68643090031
field sum 24585
field sqrsum 20586823
field min 0
field max 1314
attr type  int
bin	-INF	0
bin	-659	0
bin	-645	0
bin	-631	0
bin	-617	0
bin	-603	0
bin	-589	0
bin	-575	0
bin	-561	0
bin	-547	0
bin	-533	0
bin	-519	0
bin	-505	0
bin	-491	0
bin	-477	0
bin	-463	0
bin	-449	0
bin	-435	0
bin	-421	0
bin	-407	0
bin	-393	0
bin	-379	0
bin	-365	0
bin	-351	0
bin	-337	0
bin	-323	0
bin	-309	0
bin	-295	0
bin	-281	0
bin	-267	0
bin	-253	0
bin	-239	0
bin	-225	0
bin	-211	0
bin	-197	0
bin	-183	0
bin	-169	0
bin	-155	0
bin	-141	0
bin	-127	0
bin	-113	0
bin	-99	0
bin	-85	0
bin	-71	0
bin	-57	0
bin	-43	0
bin	-29	0
bin	-15	0
bin	-1	2
bin	13	0
bin	27	0
bin	41	0
bin	55	0
bin	69	0
bin	83	0
bin	97	0
bin	111	0
bin	125	1
bin	139	1
bin	153	0
bin	167	0
bin	181	0
bin	195	0
bin	209	0
bin	223	0
bin	237	0
bin	251	0
bin	265	2
bin	279	3
bin	293	0
bin	307	0
bin	321	0
bin	335	0
bin	349	0
bin	363	0
bin	377	0
bin	391	0
bin	405	0
bin	419	2
bin	433	2
bin	447	0
bin	461	0
bin	475	0
bin	489	0
bin	503	0
bin	517	0
bin	531	0
bin	545	0
bin	559	2
bin	573	7
bin	587	0
bin	601	0
bin	615	0
bin	629	0
bin	643	0
bin	657	0
bin	671	0
bin	685	0
bin	699	0
bin	713	1
bin	727	2
bin	741	0
bin	755	0
bin	769	0
bin	783	0
bin	797	0
bin	811	0
bin	825	0
bin	839	1
bin	853	0
bin	867	0
bin	881	0
bin	895	0
bin	909	0
bin	923	0
bin	937	0
bin	951	0
bin	965	0
bin	979	0
bin	993	1
bin	1007	1
bin	1021	6
bin	1035	0
bin	1049	0
bin	1063	0
bin	1077	0
bin	1091	0
bin	1105	0
bin	1119	0
bin	1133	1
bin	1147	0
bin	1161	0
bin	1175	2
bin	1189	0
bin	1203	0
bin	1217	0
bin	1231	0
bin	1245	0
bin	1259	0
bin	1273	0
bin	1287	0
bin	1301	1
bin	1315	0
bin	1329	0
bin	1343	0
bin	1357	0
bin	1371	0
bin	1385	0
bin	1399	0
bin	1413	0
bin	1427	0
bin	1441	0
bin	1455	0
bin	1469	0
bin	1483	0
bin	1497	0
bin	1511	0
bin	1525	0
bin	1539	0
bin	1553	0
bin	1567	0
bin	1581	0
bin	1595	0
bin	1609	0
bin	1623	0
bin	1637	0
bin	1651	0
bin	1665	0
bin	1679	0
bin	1693	0
bin	1707	0
bin	1721	0
bin	1735	0
bin	1749	0
bin	1763	0
bin	1777	0
bin	1791	0
bin	1805	0
bin	1819	0
bin	1833	0
bin	1847	0
bin	1861	0
bin	1875	0
bin	1889	0
bin	1903	0
bin	1917	0
bin	1931	0
bin	1945	0
bin	1959	0
bin	1973	0
scalar scenarioOpp.node[140].mobility 	Community 	0
scalar scenarioOpp.node[154].appl 	"# Bundle Sent" 	0
scalar scenarioOpp.node[154].appl 	"# Bundle Received" 	0
scalar scenarioOpp.node[154].netw 	"# L3Sent" 	1148
scalar scenarioOpp.node[154].netw 	"# L3Received" 	989
scalar scenarioOpp.node[154].netw 	"# of Contacts" 	433
scalar scenarioOpp.node[154].netw 	"# of InterContacts" 	292
scalar scenarioOpp.node[154].netw 	"# Bundles at L3" 	455
statistic scenarioOpp.node[154].netw 	"Histogram for max nbr repeated contact"
field count 52
field mean 5.6153846153846
field stddev 20.83281145651
field sum 292
field sqrsum 23774
field min 1
field max 139
attr type  int
bin	-INF	0
bin	-68	0
bin	-66	0
bin	-64	0
bin	-62	0
bin	-60	0
bin	-58	0
bin	-56	0
bin	-54	0
bin	-52	0
bin	-50	0
bin	-48	0
bin	-46	0
bin	-44	0
bin	-42	0
bin	-40	0
bin	-38	0
bin	-36	0
bin	-34	0
bin	-32	0
bin	-30	0
bin	-28	0
bin	-26	0
bin	-24	0
bin	-22	0
bin	-20	0
bin	-18	0
bin	-16	0
bin	-14	0
bin	-12	0
bin	-10	0
bin	-8	0
bin	-6	0
bin	-4	0
bin	-2	0
bin	0	35
bin	2	11
bin	4	2
bin	6	1
bin	8	0
bin	10	0
bin	12	0
bin	14	0
bin	16	0
bin	18	1
bin	20	0
bin	22	0
bin	24	0
bin	26	0
bin	28	0
bin	30	0
bin	32	0
bin	34	0
bin	36	0
bin	38	0
bin	40	0
bin	42	0
bin	44	0
bin	46	0
bin	48	0
bin	50	0
bin	52	0
bin	54	0
bin	56	0
bin	58	0
bin	60	0
bin	62	1
bin	64	0
bin	66	0
bin	68	0
bin	70	0
bin	72	0
bin	74	0
bin	76	0
bin	78	0
bin	80	0
bin	82	0
bin	84	0
bin	86	0
bin	88	0
bin	90	0
bin	92	0
bin	94	0
bin	96	0
bin	98	0
bin	100	0
bin	102	0
bin	104	0
bin	106	0
bin	108	0
bin	110	0
bin	112	0
bin	114	0
bin	116	0
bin	118	0
bin	120	0
bin	122	0
bin	124	0
bin	126	0
bin	128	0
bin	130	0
bin	132	0
bin	134	0
bin	136	0
bin	138	1
bin	140	0
bin	142	0
bin	144	0
bin	146	0
bin	148	0
bin	150	0
bin	152	0
bin	154	0
bin	156	0
bin	158	0
bin	160	0
bin	162	0
bin	164	0
bin	166	0
bin	168	0
bin	170	0
bin	172	0
bin	174	0
bin	176	0
bin	178	0
bin	180	0
bin	182	0
bin	184	0
bin	186	0
bin	188	0
bin	190	0
bin	192	0
bin	194	0
bin	196	0
bin	198	0
bin	200	0
bin	202	0
bin	204	0
bin	206	0
bin	208	0
scalar scenarioOpp.node[154].netw 	"Bars for #repeated 1" 	52
scalar scenarioOpp.node[154].netw 	"Bars for #repeated 2" 	17
scalar scenarioOpp.node[154].netw 	"Bars for #repeated 3" 	6
scalar scenarioOpp.node[154].netw 	"Bars for #repeated 4" 	6
scalar scenarioOpp.node[154].netw 	"Bars for #repeated 5" 	211
scalar scenarioOpp.node[154].netw 	"Contact CDF LQ1 #repeated 1" 	3
scalar scenarioOpp.node[154].netw 	"Contact CDF G1LQ5 #repeated 1" 	0
scalar scenarioOpp.node[154].netw 	"Contact CDF G5LQ20 #repeated 1" 	47
scalar scenarioOpp.node[154].netw 	"Contact CDF G20LQ50 #repeated 1" 	1
scalar scenarioOpp.node[154].netw 	"Contact CDF G50LQ100 #repeated 1" 	0
scalar scenarioOpp.node[154].netw 	"Contact CDF G100LQ500 #repeated 1" 	0
scalar scenarioOpp.node[154].netw 	"Contact CDF G500 #repeated 1" 	0
scalar scenarioOpp.node[154].netw 	"Contact CDF LQ1 #repeated 2" 	5
scalar scenarioOpp.node[154].netw 	"Contact CDF G1LQ5 #repeated 2" 	0
scalar scenarioOpp.node[154].netw 	"Contact CDF G5LQ20 #repeated 2" 	10
scalar scenarioOpp.node[154].netw 	"Contact CDF G20LQ50 #repeated 2" 	2
scalar scenarioOpp.node[154].netw 	"Contact CDF G50LQ100 #repeated 2" 	0
scalar scenarioOpp.node[154].netw 	"Contact CDF G100LQ500 #repeated 2" 	0
scalar scenarioOpp.node[154].netw 	"Contact CDF G500 #repeated 2" 	0
scalar scenarioOpp.node[154].netw 	"Contact CDF LQ1 #repeated 3" 	4
scalar scenarioOpp.node[154].netw 	"Contact CDF G1LQ5 #repeated 3" 	1
scalar scenarioOpp.node[154].netw 	"Contact CDF G5LQ20 #repeated 3" 	1
scalar scenarioOpp.node[154].netw 	"Contact CDF G20LQ50 #repeated 3" 	0
scalar scenarioOpp.node[154].netw 	"Contact CDF G50LQ100 #repeated 3" 	0
scalar scenarioOpp.node[154].netw 	"Contact CDF G100LQ500 #repeated 3" 	0
scalar scenarioOpp.node[154].netw 	"Contact CDF G500 #repeated 3" 	0
scalar scenarioOpp.node[154].netw 	"Contact CDF LQ1 #repeated 4" 	6
scalar scenarioOpp.node[154].netw 	"Contact CDF G1LQ5 #repeated 4" 	0
scalar scenarioOpp.node[154].netw 	"Contact CDF G5LQ20 #repeated 4" 	0
scalar scenarioOpp.node[154].netw 	"Contact CDF G20LQ50 #repeated 4" 	0
scalar scenarioOpp.node[154].netw 	"Contact CDF G50LQ100 #repeated 4" 	0
scalar scenarioOpp.node[154].netw 	"Contact CDF G100LQ500 #repeated 4" 	0
scalar scenarioOpp.node[154].netw 	"Contact CDF G500 #repeated 4" 	0
scalar scenarioOpp.node[154].netw 	"Contact CDF LQ1 #repeated 5" 	207
scalar scenarioOpp.node[154].netw 	"Contact CDF G1LQ5 #repeated 5" 	0
scalar scenarioOpp.node[154].netw 	"Contact CDF G5LQ20 #repeated 5" 	3
scalar scenarioOpp.node[154].netw 	"Contact CDF G20LQ50 #repeated 5" 	0
scalar scenarioOpp.node[154].netw 	"Contact CDF G50LQ100 #repeated 5" 	0
scalar scenarioOpp.node[154].netw 	"Contact CDF G100LQ500 #repeated 5" 	0
scalar scenarioOpp.node[154].netw 	"Contact CDF G500 #repeated 5" 	0
scalar scenarioOpp.node[154].netw 	"InterContact CDF LQ1 #repeated 1" 	3
scalar scenarioOpp.node[154].netw 	"InterContact CDF G1LQ5 #repeated 1" 	0
scalar scenarioOpp.node[154].netw 	"InterContact CDF G5LQ20 #repeated 1" 	0
scalar scenarioOpp.node[154].netw 	"InterContact CDF G20LQ50 #repeated 1" 	0
scalar scenarioOpp.node[154].netw 	"InterContact CDF G50LQ100 #repeated 1" 	0
scalar scenarioOpp.node[154].netw 	"InterContact CDF G100LQ500 #repeated 1" 	0
scalar scenarioOpp.node[154].netw 	"InterContact CDF G500 #repeated 1" 	22
scalar scenarioOpp.node[154].netw 	"InterContact CDF LQ1 #repeated 2" 	4
scalar scenarioOpp.node[154].netw 	"InterContact CDF G1LQ5 #repeated 2" 	0
scalar scenarioOpp.node[154].netw 	"InterContact CDF G5LQ20 #repeated 2" 	0
scalar scenarioOpp.node[154].netw 	"InterContact CDF G20LQ50 #repeated 2" 	0
scalar scenarioOpp.node[154].netw 	"InterContact CDF G50LQ100 #repeated 2" 	0
scalar scenarioOpp.node[154].netw 	"InterContact CDF G100LQ500 #repeated 2" 	0
scalar scenarioOpp.node[154].netw 	"InterContact CDF G500 #repeated 2" 	5
scalar scenarioOpp.node[154].netw 	"InterContact CDF LQ1 #repeated 3" 	4
scalar scenarioOpp.node[154].netw 	"InterContact CDF G1LQ5 #repeated 3" 	0
scalar scenarioOpp.node[154].netw 	"InterContact CDF G5LQ20 #repeated 3" 	0
scalar scenarioOpp.node[154].netw 	"InterContact CDF G20LQ50 #repeated 3" 	0
scalar scenarioOpp.node[154].netw 	"InterContact CDF G50LQ100 #repeated 3" 	2
scalar scenarioOpp.node[154].netw 	"InterContact CDF G100LQ500 #repeated 3" 	0
scalar scenarioOpp.node[154].netw 	"InterContact CDF G500 #repeated 3" 	0
scalar scenarioOpp.node[154].netw 	"InterContact CDF LQ1 #repeated 4" 	6
scalar scenarioOpp.node[154].netw 	"InterContact CDF G1LQ5 #repeated 4" 	0
scalar scenarioOpp.node[154].netw 	"InterContact CDF G5LQ20 #repeated 4" 	0
scalar scenarioOpp.node[154].netw 	"InterContact CDF G20LQ50 #repeated 4" 	0
scalar scenarioOpp.node[154].netw 	"InterContact CDF G50LQ100 #repeated 4" 	0
scalar scenarioOpp.node[154].netw 	"InterContact CDF G100LQ500 #repeated 4" 	0
scalar scenarioOpp.node[154].netw 	"InterContact CDF G500 #repeated 4" 	0
scalar scenarioOpp.node[154].netw 	"InterContact CDF LQ1 #repeated 5" 	209
scalar scenarioOpp.node[154].netw 	"InterContact CDF G1LQ5 #repeated 5" 	0
scalar scenarioOpp.node[154].netw 	"InterContact CDF G5LQ20 #repeated 5" 	0
scalar scenarioOpp.node[154].netw 	"InterContact CDF G20LQ50 #repeated 5" 	0
scalar scenarioOpp.node[154].netw 	"InterContact CDF G50LQ100 #repeated 5" 	2
scalar scenarioOpp.node[154].netw 	"InterContact CDF G100LQ500 #repeated 5" 	0
scalar scenarioOpp.node[154].netw 	"InterContact CDF G500 #repeated 5" 	0
statistic scenarioOpp.node[154].netw 	"Histogram for total contact duration"
field count 51
field mean 21.450980392157
field stddev 38.429839305149
field sum 1094
field sqrsum 97310
field min 0
field max 226
attr type  int
bin	-INF	0
bin	-113	0
bin	-110	0
bin	-107	0
bin	-104	0
bin	-101	0
bin	-98	0
bin	-95	0
bin	-92	0
bin	-89	0
bin	-86	0
bin	-83	0
bin	-80	0
bin	-77	0
bin	-74	0
bin	-71	0
bin	-68	0
bin	-65	0
bin	-62	0
bin	-59	0
bin	-56	0
bin	-53	0
bin	-50	0
bin	-47	0
bin	-44	0
bin	-41	0
bin	-38	0
bin	-35	0
bin	-32	0
bin	-29	0
bin	-26	0
bin	-23	0
bin	-20	0
bin	-17	0
bin	-14	0
bin	-11	0
bin	-8	0
bin	-5	0
bin	-2	1
bin	1	0
bin	4	0
bin	7	18
bin	10	13
bin	13	3
bin	16	3
bin	19	7
bin	22	0
bin	25	1
bin	28	0
bin	31	0
bin	34	0
bin	37	1
bin	40	1
bin	43	1
bin	46	0
bin	49	0
bin	52	0
bin	55	0
bin	58	0
bin	61	0
bin	64	0
bin	67	0
bin	70	0
bin	73	0
bin	76	0
bin	79	0
bin	82	0
bin	85	0
bin	88	0
bin	91	0
bin	94	0
bin	97	0
bin	100	0
bin	103	0
bin	106	0
bin	109	0
bin	112	0
bin	115	0
bin	118	0
bin	121	0
bin	124	0
bin	127	0
bin	130	0
bin	133	0
bin	136	0
bin	139	0
bin	142	0
bin	145	0
bin	148	0
bin	151	0
bin	154	0
bin	157	0
bin	160	0
bin	163	0
bin	166	0
bin	169	0
bin	172	0
bin	175	0
bin	178	0
bin	181	1
bin	184	0
bin	187	0
bin	190	0
bin	193	0
bin	196	0
bin	199	0
bin	202	0
bin	205	0
bin	208	0
bin	211	0
bin	214	0
bin	217	0
bin	220	0
bin	223	0
bin	226	1
bin	229	0
bin	232	0
bin	235	0
bin	238	0
bin	241	0
bin	244	0
bin	247	0
bin	250	0
bin	253	0
bin	256	0
bin	259	0
bin	262	0
bin	265	0
bin	268	0
bin	271	0
bin	274	0
bin	277	0
bin	280	0
bin	283	0
bin	286	0
bin	289	0
bin	292	0
bin	295	0
bin	298	0
bin	301	0
bin	304	0
bin	307	0
bin	310	0
bin	313	0
bin	316	0
bin	319	0
bin	322	0
bin	325	0
bin	328	0
bin	331	0
bin	334	0
bin	337	0
bin	340	0
statistic scenarioOpp.node[154].netw 	"Histogram for total interContact duration"
field count 52
field mean 634.88461538462
field stddev 298.67062675811
field sum 33014
field sqrsum 25509492
field min 0
field max 1182
attr type  int
bin	-INF	0
bin	-591	0
bin	-579	0
bin	-567	0
bin	-555	0
bin	-543	0
bin	-531	0
bin	-519	0
bin	-507	0
bin	-495	0
bin	-483	0
bin	-471	0
bin	-459	0
bin	-447	0
bin	-435	0
bin	-423	0
bin	-411	0
bin	-399	0
bin	-387	0
bin	-375	0
bin	-363	0
bin	-351	0
bin	-339	0
bin	-327	0
bin	-315	0
bin	-303	0
bin	-291	0
bin	-279	0
bin	-267	0
bin	-255	0
bin	-243	0
bin	-231	0
bin	-219	0
bin	-207	0
bin	-195	0
bin	-183	0
bin	-171	0
bin	-159	0
bin	-147	0
bin	-135	0
bin	-123	0
bin	-111	0
bin	-99	0
bin	-87	0
bin	-75	0
bin	-63	0
bin	-51	0
bin	-39	0
bin	-27	0
bin	-15	0
bin	-3	2
bin	9	0
bin	21	0
bin	33	0
bin	45	0
bin	57	0
bin	69	0
bin	81	0
bin	93	0
bin	105	0
bin	117	0
bin	129	3
bin	141	0
bin	153	0
bin	165	0
bin	177	0
bin	189	0
bin	201	0
bin	213	0
bin	225	0
bin	237	0
bin	249	0
bin	261	1
bin	273	1
bin	285	1
bin	297	0
bin	309	0
bin	321	0
bin	333	0
bin	345	0
bin	357	0
bin	369	0
bin	381	0
bin	393	0
bin	405	0
bin	417	0
bin	429	9
bin	441	2
bin	453	0
bin	465	0
bin	477	0
bin	489	0
bin	501	0
bin	513	0
bin	525	0
bin	537	0
bin	549	0
bin	561	1
bin	573	3
bin	585	4
bin	597	0
bin	609	0
bin	621	0
bin	633	0
bin	645	0
bin	657	0
bin	669	1
bin	681	0
bin	693	0
bin	705	0
bin	717	2
bin	729	3
bin	741	0
bin	753	0
bin	765	0
bin	777	0
bin	789	0
bin	801	0
bin	813	0
bin	825	0
bin	837	2
bin	849	0
bin	861	6
bin	873	5
bin	885	0
bin	897	0
bin	909	0
bin	921	0
bin	933	0
bin	945	0
bin	957	0
bin	969	0
bin	981	0
bin	993	0
bin	1005	1
bin	1017	1
bin	1029	0
bin	1041	0
bin	1053	0
bin	1065	0
bin	1077	0
bin	1089	0
bin	1101	0
bin	1113	0
bin	1125	0
bin	1137	0
bin	1149	1
bin	1161	2
bin	1173	1
bin	1185	0
bin	1197	0
bin	1209	0
bin	1221	0
bin	1233	0
bin	1245	0
bin	1257	0
bin	1269	0
bin	1281	0
bin	1293	0
bin	1305	0
bin	1317	0
bin	1329	0
bin	1341	0
bin	1353	0
bin	1365	0
bin	1377	0
bin	1389	0
bin	1401	0
bin	1413	0
bin	1425	0
bin	1437	0
bin	1449	0
bin	1461	0
bin	1473	0
bin	1485	0
bin	1497	0
bin	1509	0
bin	1521	0
bin	1533	0
bin	1545	0
bin	1557	0
bin	1569	0
bin	1581	0
bin	1593	0
bin	1605	0
bin	1617	0
bin	1629	0
bin	1641	0
bin	1653	0
bin	1665	0
bin	1677	0
bin	1689	0
bin	1701	0
bin	1713	0
bin	1725	0
bin	1737	0
bin	1749	0
bin	1761	0
bin	1773	0
scalar scenarioOpp.node[154].mobility 	Community 	0
scalar scenarioOpp.node[168].appl 	"# Bundle Sent" 	0
scalar scenarioOpp.node[168].appl 	"# Bundle Received" 	0
scalar scenarioOpp.node[168].netw 	"# L3Sent" 	929
scalar scenarioOpp.node[168].netw 	"# L3Received" 	760
scalar scenarioOpp.node[168].netw 	"# of Contacts" 	376
scalar scenarioOpp.node[168].netw 	"# of InterContacts" 	248
scalar scenarioOpp.node[168].netw 	"# Bundles at L3" 	346
statistic scenarioOpp.node[168].netw 	"Histogram for max nbr repeated contact"
field count 50
field mean 4.96
field stddev 26.995056236735
field sum 248
field sqrsum 36938
field min 1
field max 192
attr type  int
bin	-INF	0
bin	-95	0
bin	-93	0
bin	-91	0
bin	-89	0
bin	-87	0
bin	-85	0
bin	-83	0
bin	-81	0
bin	-79	0
bin	-77	0
bin	-75	0
bin	-73	0
bin	-71	0
bin	-69	0
bin	-67	0
bin	-65	0
bin	-63	0
bin	-61	0
bin	-59	0
bin	-57	0
bin	-55	0
bin	-53	0
bin	-51	0
bin	-49	0
bin	-47	0
bin	-45	0
bin	-43	0
bin	-41	0
bin	-39	0
bin	-37	0
bin	-35	0
bin	-33	0
bin	-31	0
bin	-29	0
bin	-27	0
bin	-25	0
bin	-23	0
bin	-21	0
bin	-19	0
bin	-17	0
bin	-15	0
bin	-13	0
bin	-11	0
bin	-9	0
bin	-7	0
bin	-5	0
bin	-3	0
bin	-1	0
bin	1	47
bin	3	2
bin	5	0
bin	7	0
bin	9	0
bin	11	0
bin	13	0
bin	15	0
bin	17	0
bin	19	0
bin	21	0
bin	23	0
bin	25	0
bin	27	0
bin	29	0
bin	31	0
bin	33	0
bin	35	0
bin	37	0
bin	39	0
bin	41	0
bin	43	0
bin	45	0
bin	47	0
bin	49	0
bin	51	0
bin	53	0
bin	55	0
bin	57	0
bin	59	0
bin	61	0
bin	63	0
bin	65	0
bin	67	0
bin	69	0
bin	71	0
bin	73	0
bin	75	0
bin	77	0
bin	79	0
bin	81	0
bin	83	0
bin	85	0
bin	87	0
bin	89	0
bin	91	0
bin	93	0
bin	95	0
bin	97	0
bin	99	0
bin	101	0
bin	103	0
bin	105	0
bin	107	0
bin	109	0
bin	111	0
bin	113	0
bin	115	0
bin	117	0
bin	119	0
bin	121	0
bin	123	0
bin	125	0
bin	127	0
bin	129	0
bin	131	0
bin	133	0
bin	135	0
bin	137	0
bin	139	0
bin	141	0
bin	143	0
bin	145	0
bin	147	0
bin	149	0
bin	151	0
bin	153	0
bin	155	0
bin	157	0
bin	159	0
bin	161	0
bin	163	0
bin	165	0
bin	167	0
bin	169	0
bin	171	0
bin	173	0
bin	175	0
bin	177	0
bin	179	0
bin	181	0
bin	183	0
bin	185	0
bin	187	0
bin	189	0
bin	191	1
bin	193	0
bin	195	0
bin	197	0
bin	199	0
bin	201	0
bin	203	0
bin	205	0
bin	207	0
bin	209	0
bin	211	0
bin	213	0
bin	215	0
bin	217	0
bin	219	0
bin	221	0
bin	223	0
bin	225	0
bin	227	0
bin	229	0
bin	231	0
bin	233	0
bin	235	0
bin	237	0
bin	239	0
bin	241	0
bin	243	0
bin	245	0
bin	247	0
bin	249	0
bin	251	0
bin	253	0
bin	255	0
bin	257	0
bin	259	0
bin	261	0
bin	263	0
bin	265	0
bin	267	0
bin	269	0
bin	271	0
bin	273	0
bin	275	0
bin	277	0
bin	279	0
bin	281	0
bin	283	0
bin	285	0
bin	287	0
bin	289	0
scalar scenarioOpp.node[168].netw 	"Bars for #repeated 1" 	50
scalar scenarioOpp.node[168].netw 	"Bars for #repeated 2" 	6
scalar scenarioOpp.node[168].netw 	"Bars for #repeated 3" 	3
scalar scenarioOpp.node[168].netw 	"Bars for #repeated 4" 	1
scalar scenarioOpp.node[168].netw 	"Bars for #repeated 5" 	188
scalar scenarioOpp.node[168].netw 	"Contact CDF LQ1 #repeated 1" 	4
scalar scenarioOpp.node[168].netw 	"Contact CDF G1LQ5 #repeated 1" 	0
scalar scenarioOpp.node[168].netw 	"Contact CDF G5LQ20 #repeated 1" 	41
scalar scenarioOpp.node[168].netw 	"Contact CDF G20LQ50 #repeated 1" 	1
scalar scenarioOpp.node[168].netw 	"Contact CDF G50LQ100 #repeated 1" 	0
scalar scenarioOpp.node[168].netw 	"Contact CDF G100LQ500 #repeated 1" 	0
scalar scenarioOpp.node[168].netw 	"Contact CDF G500 #repeated 1" 	0
scalar scenarioOpp.node[168].netw 	"Contact CDF LQ1 #repeated 2" 	1
scalar scenarioOpp.node[168].netw 	"Contact CDF G1LQ5 #repeated 2" 	0
scalar scenarioOpp.node[168].netw 	"Contact CDF G5LQ20 #repeated 2" 	5
scalar scenarioOpp.node[168].netw 	"Contact CDF G20LQ50 #repeated 2" 	0
scalar scenarioOpp.node[168].netw 	"Contact CDF G50LQ100 #repeated 2" 	0
scalar scenarioOpp.node[168].netw 	"Contact CDF G100LQ500 #repeated 2" 	0
scalar scenarioOpp.node[168].netw 	"Contact CDF G500 #repeated 2" 	0
scalar scenarioOpp.node[168].netw 	"Contact CDF LQ1 #repeated 3" 	0
scalar scenarioOpp.node[168].netw 	"Contact CDF G1LQ5 #repeated 3" 	0
scalar scenarioOpp.node[168].netw 	"Contact CDF G5LQ20 #repeated 3" 	3
scalar scenarioOpp.node[168].netw 	"Contact CDF G20LQ50 #repeated 3" 	0
scalar scenarioOpp.node[168].netw 	"Contact CDF G50LQ100 #repeated 3" 	0
scalar scenarioOpp.node[168].netw 	"Contact CDF G100LQ500 #repeated 3" 	0
scalar scenarioOpp.node[168].netw 	"Contact CDF G500 #repeated 3" 	0
scalar scenarioOpp.node[168].netw 	"Contact CDF LQ1 #repeated 4" 	1
scalar scenarioOpp.node[168].netw 	"Contact CDF G1LQ5 #repeated 4" 	0
scalar scenarioOpp.node[168].netw 	"Contact CDF G5LQ20 #repeated 4" 	0
scalar scenarioOpp.node[168].netw 	"Contact CDF G20LQ50 #repeated 4" 	0
scalar scenarioOpp.node[168].netw 	"Contact CDF G50LQ100 #repeated 4" 	0
scalar scenarioOpp.node[168].netw 	"Contact CDF G100LQ500 #repeated 4" 	0
scalar scenarioOpp.node[168].netw 	"Contact CDF G500 #repeated 4" 	0
scalar scenarioOpp.node[168].netw 	"Contact CDF LQ1 #repeated 5" 	185
scalar scenarioOpp.node[168].netw 	"Contact CDF G1LQ5 #repeated 5" 	0
scalar scenarioOpp.node[168].netw 	"Contact CDF G5LQ20 #repeated 5" 	2
scalar scenarioOpp.node[168].netw 	"Contact CDF G20LQ50 #repeated 5" 	1
scalar scenarioOpp.node[168].netw 	"Contact CDF G50LQ100 #repeated 5" 	0
scalar scenarioOpp.node[168].netw 	"Contact CDF G100LQ500 #repeated 5" 	0
scalar scenarioOpp.node[168].netw 	"Contact CDF G500 #repeated 5" 	0
scalar scenarioOpp.node[168].netw 	"InterContact CDF LQ1 #repeated 1" 	4
scalar scenarioOpp.node[168].netw 	"InterContact CDF G1LQ5 #repeated 1" 	0
scalar scenarioOpp.node[168].netw 	"InterContact CDF G5LQ20 #repeated 1" 	0
scalar scenarioOpp.node[168].netw 	"InterContact CDF G20LQ50 #repeated 1" 	0
scalar scenarioOpp.node[168].netw 	"InterContact CDF G50LQ100 #repeated 1" 	0
scalar scenarioOpp.node[168].netw 	"InterContact CDF G100LQ500 #repeated 1" 	0
scalar scenarioOpp.node[168].netw 	"InterContact CDF G500 #repeated 1" 	16
scalar scenarioOpp.node[168].netw 	"InterContact CDF LQ1 #repeated 2" 	0
scalar scenarioOpp.node[168].netw 	"InterContact CDF G1LQ5 #repeated 2" 	0
scalar scenarioOpp.node[168].netw 	"InterContact CDF G5LQ20 #repeated 2" 	0
scalar scenarioOpp.node[168].netw 	"InterContact CDF G20LQ50 #repeated 2" 	0
scalar scenarioOpp.node[168].netw 	"InterContact CDF G50LQ100 #repeated 2" 	1
scalar scenarioOpp.node[168].netw 	"InterContact CDF G100LQ500 #repeated 2" 	0
scalar scenarioOpp.node[168].netw 	"InterContact CDF G500 #repeated 2" 	1
scalar scenarioOpp.node[168].netw 	"InterContact CDF LQ1 #repeated 3" 	1
scalar scenarioOpp.node[168].netw 	"InterContact CDF G1LQ5 #repeated 3" 	0
scalar scenarioOpp.node[168].netw 	"InterContact CDF G5LQ20 #repeated 3" 	0
scalar scenarioOpp.node[168].netw 	"InterContact CDF G20LQ50 #repeated 3" 	0
scalar scenarioOpp.node[168].netw 	"InterContact CDF G50LQ100 #repeated 3" 	0
scalar scenarioOpp.node[168].netw 	"InterContact CDF G100LQ500 #repeated 3" 	0
scalar scenarioOpp.node[168].netw 	"InterContact CDF G500 #repeated 3" 	1
scalar scenarioOpp.node[168].netw 	"InterContact CDF LQ1 #repeated 4" 	1
scalar scenarioOpp.node[168].netw 	"InterContact CDF G1LQ5 #repeated 4" 	0
scalar scenarioOpp.node[168].netw 	"InterContact CDF G5LQ20 #repeated 4" 	0
scalar scenarioOpp.node[168].netw 	"InterContact CDF G20LQ50 #repeated 4" 	0
scalar scenarioOpp.node[168].netw 	"InterContact CDF G50LQ100 #repeated 4" 	0
scalar scenarioOpp.node[168].netw 	"InterContact CDF G100LQ500 #repeated 4" 	0
scalar scenarioOpp.node[168].netw 	"InterContact CDF G500 #repeated 4" 	0
scalar scenarioOpp.node[168].netw 	"InterContact CDF LQ1 #repeated 5" 	188
scalar scenarioOpp.node[168].netw 	"InterContact CDF G1LQ5 #repeated 5" 	0
scalar scenarioOpp.node[168].netw 	"InterContact CDF G5LQ20 #repeated 5" 	0
scalar scenarioOpp.node[168].netw 	"InterContact CDF G20LQ50 #repeated 5" 	0
scalar scenarioOpp.node[168].netw 	"InterContact CDF G50LQ100 #repeated 5" 	0
scalar scenarioOpp.node[168].netw 	"InterContact CDF G100LQ500 #repeated 5" 	0
scalar scenarioOpp.node[168].netw 	"InterContact CDF G500 #repeated 5" 	0
statistic scenarioOpp.node[168].netw 	"Histogram for total contact duration"
field count 46
field mean 16.913043478261
field stddev 35.459414099914
field sum 778
field sqrsum 69740
field min 0
field max 246
attr type  int
bin	-INF	0
bin	-123	0
bin	-120	0
bin	-117	0
bin	-114	0
bin	-111	0
bin	-108	0
bin	-105	0
bin	-102	0
bin	-99	0
bin	-96	0
bin	-93	0
bin	-90	0
bin	-87	0
bin	-84	0
bin	-81	0
bin	-78	0
bin	-75	0
bin	-72	0
bin	-69	0
bin	-66	0
bin	-63	0
bin	-60	0
bin	-57	0
bin	-54	0
bin	-51	0
bin	-48	0
bin	-45	0
bin	-42	0
bin	-39	0
bin	-36	0
bin	-33	0
bin	-30	0
bin	-27	0
bin	-24	0
bin	-21	0
bin	-18	0
bin	-15	0
bin	-12	0
bin	-9	0
bin	-6	0
bin	-3	0
bin	0	2
bin	3	0
bin	6	1
bin	9	29
bin	12	4
bin	15	3
bin	18	3
bin	21	1
bin	24	1
bin	27	0
bin	30	0
bin	33	0
bin	36	0
bin	39	0
bin	42	0
bin	45	0
bin	48	0
bin	51	0
bin	54	1
bin	57	0
bin	60	0
bin	63	0
bin	66	0
bin	69	0
bin	72	0
bin	75	0
bin	78	0
bin	81	0
bin	84	0
bin	87	0
bin	90	0
bin	93	0
bin	96	0
bin	99	0
bin	102	0
bin	105	0
bin	108	0
bin	111	0
bin	114	0
bin	117	0
bin	120	0
bin	123	0
bin	126	0
bin	129	0
bin	132	0
bin	135	0
bin	138	0
bin	141	0
bin	144	0
bin	147	0
bin	150	0
bin	153	0
bin	156	0
bin	159	0
bin	162	0
bin	165	0
bin	168	0
bin	171	0
bin	174	0
bin	177	0
bin	180	0
bin	183	0
bin	186	0
bin	189	0
bin	192	0
bin	195	0
bin	198	0
bin	201	0
bin	204	0
bin	207	0
bin	210	0
bin	213	0
bin	216	0
bin	219	0
bin	222	0
bin	225	0
bin	228	0
bin	231	0
bin	234	0
bin	237	0
bin	240	0
bin	243	0
bin	246	1
bin	249	0
bin	252	0
bin	255	0
bin	258	0
bin	261	0
bin	264	0
bin	267	0
bin	270	0
bin	273	0
bin	276	0
bin	279	0
bin	282	0
bin	285	0
bin	288	0
bin	291	0
bin	294	0
bin	297	0
bin	300	0
bin	303	0
bin	306	0
bin	309	0
bin	312	0
bin	315	0
bin	318	0
bin	321	0
bin	324	0
bin	327	0
bin	330	0
bin	333	0
bin	336	0
bin	339	0
bin	342	0
bin	345	0
bin	348	0
bin	351	0
bin	354	0
bin	357	0
bin	360	0
bin	363	0
bin	366	0
bin	369	0
statistic scenarioOpp.node[168].netw 	"Histogram for total interContact duration"
field count 50
field mean 490.74
field stddev 267.08974338302
field sum 24537
field sqrsum 15536797
field min 0
field max 1177
attr type  int
bin	-INF	0
bin	-593	0
bin	-581	0
bin	-569	0
bin	-557	0
bin	-545	0
bin	-533	0
bin	-521	0
bin	-509	0
bin	-497	0
bin	-485	0
bin	-473	0
bin	-461	0
bin	-449	0
bin	-437	0
bin	-425	0
bin	-413	0
bin	-401	0
bin	-389	0
bin	-377	0
bin	-365	0
bin	-353	0
bin	-341	0
bin	-329	0
bin	-317	0
bin	-305	0
bin	-293	0
bin	-281	0
bin	-269	0
bin	-257	0
bin	-245	0
bin	-233	0
bin	-221	0
bin	-209	0
bin	-197	0
bin	-185	0
bin	-173	0
bin	-161	0
bin	-149	0
bin	-137	0
bin	-125	0
bin	-113	0
bin	-101	0
bin	-89	0
bin	-77	0
bin	-65	0
bin	-53	0
bin	-41	0
bin	-29	0
bin	-17	0
bin	-5	2
bin	7	0
bin	19	0
bin	31	0
bin	43	0
bin	55	1
bin	67	0
bin	79	0
bin	91	0
bin	103	0
bin	115	0
bin	127	1
bin	139	1
bin	151	0
bin	163	0
bin	175	0
bin	187	0
bin	199	0
bin	211	0
bin	223	0
bin	235	0
bin	247	0
bin	259	0
bin	271	7
bin	283	5
bin	295	0
bin	307	0
bin	319	0
bin	331	0
bin	343	0
bin	355	0
bin	367	0
bin	379	0
bin	391	0
bin	403	0
bin	415	1
bin	427	9
bin	439	2
bin	451	1
bin	463	0
bin	475	0
bin	487	0
bin	499	0
bin	511	0
bin	523	0
bin	535	0
bin	547	0
bin	559	0
bin	571	1
bin	583	6
bin	595	1
bin	607	0
bin	619	0
bin	631	0
bin	643	0
bin	655	0
bin	667	0
bin	679	0
bin	691	0
bin	703	0
bin	715	3
bin	727	1
bin	739	0
bin	751	0
bin	763	0
bin	775	0
bin	787	0
bin	799	0
bin	811	0
bin	823	0
bin	835	0
bin	847	0
bin	859	2
bin	871	4
bin	883	0
bin	895	0
bin	907	0
bin	919	0
bin	931	0
bin	943	0
bin	955	0
bin	967	0
bin	979	0
bin	991	0
bin	1003	0
bin	1015	0
bin	1027	0
bin	1039	0
bin	1051	0
bin	1063	0
bin	1075	0
bin	1087	0
bin	1099	0
bin	1111	1
bin	1123	0
bin	1135	0
bin	1147	0
bin	1159	0
bin	1171	1
bin	1183	0
bin	1195	0
bin	1207	0
bin	1219	0
bin	1231	0
bin	1243	0
bin	1255	0
bin	1267	0
bin	1279	0
bin	1291	0
bin	1303	0
bin	1315	0
bin	1327	0
bin	1339	0
bin	1351	0
bin	1363	0
bin	1375	0
bin	1387	0
bin	1399	0
bin	1411	0
bin	1423	0
bin	1435	0
bin	1447	0
bin	1459	0
bin	1471	0
bin	1483	0
bin	1495	0
bin	1507	0
bin	1519	0
bin	1531	0
bin	1543	0
bin	1555	0
bin	1567	0
bin	1579	0
bin	1591	0
bin	1603	0
bin	1615	0
bin	1627	0
bin	1639	0
bin	1651	0
bin	1663	0
bin	1675	0
bin	1687	0
bin	1699	0
bin	1711	0
bin	1723	0
bin	1735	0
bin	1747	0
bin	1759	0
bin	1771	0
scalar scenarioOpp.node[168].mobility 	Community 	0
scalar scenarioOpp.node[182].appl 	"# Bundle Sent" 	0
scalar scenarioOpp.node[182].appl 	"# Bundle Received" 	0
scalar scenarioOpp.node[182].netw 	"# L3Sent" 	903
scalar scenarioOpp.node[182].netw 	"# L3Received" 	795
scalar scenarioOpp.node[182].netw 	"# of Contacts" 	376
scalar scenarioOpp.node[182].netw 	"# of InterContacts" 	247
scalar scenarioOpp.node[182].netw 	"# Bundles at L3" 	328
statistic scenarioOpp.node[182].netw 	"Histogram for max nbr repeated contact"
field count 41
field mean 6.0243902439024
field stddev 22.374637209213
field sum 247
field sqrsum 21513
field min 1
field max 132
attr type  int
bin	-INF	0
bin	-65	0
bin	-63	0
bin	-61	0
bin	-59	0
bin	-57	0
bin	-55	0
bin	-53	0
bin	-51	0
bin	-49	0
bin	-47	0
bin	-45	0
bin	-43	0
bin	-41	0
bin	-39	0
bin	-37	0
bin	-35	0
bin	-33	0
bin	-31	0
bin	-29	0
bin	-27	0
bin	-25	0
bin	-23	0
bin	-21	0
bin	-19	0
bin	-17	0
bin	-15	0
bin	-13	0
bin	-11	0
bin	-9	0
bin	-7	0
bin	-5	0
bin	-3	0
bin	-1	0
bin	1	38
bin	3	0
bin	5	0
bin	7	1
bin	9	0
bin	11	0
bin	13	0
bin	15	0
bin	17	0
bin	19	0
bin	21	0
bin	23	0
bin	25	0
bin	27	0
bin	29	0
bin	31	0
bin	33	0
bin	35	0
bin	37	0
bin	39	0
bin	41	0
bin	43	0
bin	45	0
bin	47	0
bin	49	0
bin	51	0
bin	53	0
bin	55	0
bin	57	0
bin	59	0
bin	61	0
bin	63	1
bin	65	0
bin	67	0
bin	69	0
bin	71	0
bin	73	0
bin	75	0
bin	77	0
bin	79	0
bin	81	0
bin	83	0
bin	85	0
bin	87	0
bin	89	0
bin	91	0
bin	93	0
bin	95	0
bin	97	0
bin	99	0
bin	101	0
bin	103	0
bin	105	0
bin	107	0
bin	109	0
bin	111	0
bin	113	0
bin	115	0
bin	117	0
bin	119	0
bin	121	0
bin	123	0
bin	125	0
bin	127	0
bin	129	0
bin	131	1
bin	133	0
bin	135	0
bin	137	0
bin	139	0
bin	141	0
bin	143	0
bin	145	0
bin	147	0
bin	149	0
bin	151	0
bin	153	0
bin	155	0
bin	157	0
bin	159	0
bin	161	0
bin	163	0
bin	165	0
bin	167	0
bin	169	0
bin	171	0
bin	173	0
bin	175	0
bin	177	0
bin	179	0
bin	181	0
bin	183	0
bin	185	0
bin	187	0
bin	189	0
bin	191	0
bin	193	0
bin	195	0
bin	197	0
bin	199	0
scalar scenarioOpp.node[182].netw 	"Bars for #repeated 1" 	41
scalar scenarioOpp.node[182].netw 	"Bars for #repeated 2" 	9
scalar scenarioOpp.node[182].netw 	"Bars for #repeated 3" 	3
scalar scenarioOpp.node[182].netw 	"Bars for #repeated 4" 	3
scalar scenarioOpp.node[182].netw 	"Bars for #repeated 5" 	191
scalar scenarioOpp.node[182].netw 	"Contact CDF LQ1 #repeated 1" 	4
scalar scenarioOpp.node[182].netw 	"Contact CDF G1LQ5 #repeated 1" 	0
scalar scenarioOpp.node[182].netw 	"Contact CDF G5LQ20 #repeated 1" 	34
scalar scenarioOpp.node[182].netw 	"Contact CDF G20LQ50 #repeated 1" 	3
scalar scenarioOpp.node[182].netw 	"Contact CDF G50LQ100 #repeated 1" 	0
scalar scenarioOpp.node[182].netw 	"Contact CDF G100LQ500 #repeated 1" 	0
scalar scenarioOpp.node[182].netw 	"Contact CDF G500 #repeated 1" 	0
scalar scenarioOpp.node[182].netw 	"Contact CDF LQ1 #repeated 2" 	4
scalar scenarioOpp.node[182].netw 	"Contact CDF G1LQ5 #repeated 2" 	0
scalar scenarioOpp.node[182].netw 	"Contact CDF G5LQ20 #repeated 2" 	4
scalar scenarioOpp.node[182].netw 	"Contact CDF G20LQ50 #repeated 2" 	1
scalar scenarioOpp.node[182].netw 	"Contact CDF G50LQ100 #repeated 2" 	0
scalar scenarioOpp.node[182].netw 	"Contact CDF G100LQ500 #repeated 2" 	0
scalar scenarioOpp.node[182].netw 	"Contact CDF G500 #repeated 2" 	0
scalar scenarioOpp.node[182].netw 	"Contact CDF LQ1 #repeated 3" 	3
scalar scenarioOpp.node[182].netw 	"Contact CDF G1LQ5 #repeated 3" 	0
scalar scenarioOpp.node[182].netw 	"Contact CDF G5LQ20 #repeated 3" 	0
scalar scenarioOpp.node[182].netw 	"Contact CDF G20LQ50 #repeated 3" 	0
scalar scenarioOpp.node[182].netw 	"Contact CDF G50LQ100 #repeated 3" 	0
scalar scenarioOpp.node[182].netw 	"Contact CDF G100LQ500 #repeated 3" 	0
scalar scenarioOpp.node[182].netw 	"Contact CDF G500 #repeated 3" 	0
scalar scenarioOpp.node[182].netw 	"Contact CDF LQ1 #repeated 4" 	3
scalar scenarioOpp.node[182].netw 	"Contact CDF G1LQ5 #repeated 4" 	0
scalar scenarioOpp.node[182].netw 	"Contact CDF G5LQ20 #repeated 4" 	0
scalar scenarioOpp.node[182].netw 	"Contact CDF G20LQ50 #repeated 4" 	0
scalar scenarioOpp.node[182].netw 	"Contact CDF G50LQ100 #repeated 4" 	0
scalar scenarioOpp.node[182].netw 	"Contact CDF G100LQ500 #repeated 4" 	0
scalar scenarioOpp.node[182].netw 	"Contact CDF G500 #repeated 4" 	0
scalar scenarioOpp.node[182].netw 	"Contact CDF LQ1 #repeated 5" 	190
scalar scenarioOpp.node[182].netw 	"Contact CDF G1LQ5 #repeated 5" 	0
scalar scenarioOpp.node[182].netw 	"Contact CDF G5LQ20 #repeated 5" 	0
scalar scenarioOpp.node[182].netw 	"Contact CDF G20LQ50 #repeated 5" 	0
scalar scenarioOpp.node[182].netw 	"Contact CDF G50LQ100 #repeated 5" 	0
scalar scenarioOpp.node[182].netw 	"Contact CDF G100LQ500 #repeated 5" 	0
scalar scenarioOpp.node[182].netw 	"Contact CDF G500 #repeated 5" 	0
scalar scenarioOpp.node[182].netw 	"InterContact CDF LQ1 #repeated 1" 	4
scalar scenarioOpp.node[182].netw 	"InterContact CDF G1LQ5 #repeated 1" 	0
scalar scenarioOpp.node[182].netw 	"InterContact CDF G5LQ20 #repeated 1" 	0
scalar scenarioOpp.node[182].netw 	"InterContact CDF G20LQ50 #repeated 1" 	0
scalar scenarioOpp.node[182].netw 	"InterContact CDF G50LQ100 #repeated 1" 	0
scalar scenarioOpp.node[182].netw 	"InterContact CDF G100LQ500 #repeated 1" 	0
scalar scenarioOpp.node[182].netw 	"InterContact CDF G500 #repeated 1" 	6
scalar scenarioOpp.node[182].netw 	"InterContact CDF LQ1 #repeated 2" 	4
scalar scenarioOpp.node[182].netw 	"InterContact CDF G1LQ5 #repeated 2" 	0
scalar scenarioOpp.node[182].netw 	"InterContact CDF G5LQ20 #repeated 2" 	0
scalar scenarioOpp.node[182].netw 	"InterContact CDF G20LQ50 #repeated 2" 	0
scalar scenarioOpp.node[182].netw 	"InterContact CDF G50LQ100 #repeated 2" 	0
scalar scenarioOpp.node[182].netw 	"InterContact CDF G100LQ500 #repeated 2" 	0
scalar scenarioOpp.node[182].netw 	"InterContact CDF G500 #repeated 2" 	0
scalar scenarioOpp.node[182].netw 	"InterContact CDF LQ1 #repeated 3" 	3
scalar scenarioOpp.node[182].netw 	"InterContact CDF G1LQ5 #repeated 3" 	0
scalar scenarioOpp.node[182].netw 	"InterContact CDF G5LQ20 #repeated 3" 	0
scalar scenarioOpp.node[182].netw 	"InterContact CDF G20LQ50 #repeated 3" 	0
scalar scenarioOpp.node[182].netw 	"InterContact CDF G50LQ100 #repeated 3" 	0
scalar scenarioOpp.node[182].netw 	"InterContact CDF G100LQ500 #repeated 3" 	0
scalar scenarioOpp.node[182].netw 	"InterContact CDF G500 #repeated 3" 	0
scalar scenarioOpp.node[182].netw 	"InterContact CDF LQ1 #repeated 4" 	3
scalar scenarioOpp.node[182].netw 	"InterContact CDF G1LQ5 #repeated 4" 	0
scalar scenarioOpp.node[182].netw 	"InterContact CDF G5LQ20 #repeated 4" 	0
scalar scenarioOpp.node[182].netw 	"InterContact CDF G20LQ50 #repeated 4" 	0
scalar scenarioOpp.node[182].netw 	"InterContact CDF G50LQ100 #repeated 4" 	0
scalar scenarioOpp.node[182].netw 	"InterContact CDF G100LQ500 #repeated 4" 	0
scalar scenarioOpp.node[182].netw 	"InterContact CDF G500 #repeated 4" 	0
scalar scenarioOpp.node[182].netw 	"InterContact CDF LQ1 #repeated 5" 	191
scalar scenarioOpp.node[182].netw 	"InterContact CDF G1LQ5 #repeated 5" 	0
scalar scenarioOpp.node[182].netw 	"InterContact CDF G5LQ20 #repeated 5" 	0
scalar scenarioOpp.node[182].netw 	"InterContact CDF G20LQ50 #repeated 5" 	0
scalar scenarioOpp.node[182].netw 	"InterContact CDF G50LQ100 #repeated 5" 	0
scalar scenarioOpp.node[182].netw 	"InterContact CDF G100LQ500 #repeated 5" 	0
scalar scenarioOpp.node[182].netw 	"InterContact CDF G500 #repeated 5" 	0
statistic scenarioOpp.node[182].netw 	"Histogram for total contact duration"
field count 41
field mean 16.878048780488
field stddev 34.268932812353
field sum 692
field sqrsum 58654
field min 0
field max 226
attr type  int
bin	-INF	0
bin	-113	0
bin	-110	0
bin	-107	0
bin	-104	0
bin	-101	0
bin	-98	0
bin	-95	0
bin	-92	0
bin	-89	0
bin	-86	0
bin	-83	0
bin	-80	0
bin	-77	0
bin	-74	0
bin	-71	0
bin	-68	0
bin	-65	0
bin	-62	0
bin	-59	0
bin	-56	0
bin	-53	0
bin	-50	0
bin	-47	0
bin	-44	0
bin	-41	0
bin	-38	0
bin	-35	0
bin	-32	0
bin	-29	0
bin	-26	0
bin	-23	0
bin	-20	0
bin	-17	0
bin	-14	0
bin	-11	0
bin	-8	0
bin	-5	0
bin	-2	2
bin	1	0
bin	4	0
bin	7	24
bin	10	5
bin	13	0
bin	16	4
bin	19	3
bin	22	0
bin	25	1
bin	28	0
bin	31	0
bin	34	0
bin	37	0
bin	40	0
bin	43	0
bin	46	1
bin	49	0
bin	52	0
bin	55	0
bin	58	0
bin	61	0
bin	64	0
bin	67	0
bin	70	0
bin	73	0
bin	76	0
bin	79	0
bin	82	0
bin	85	0
bin	88	0
bin	91	0
bin	94	0
bin	97	0
bin	100	0
bin	103	0
bin	106	0
bin	109	0
bin	112	0
bin	115	0
bin	118	0
bin	121	0
bin	124	0
bin	127	0
bin	130	0
bin	133	0
bin	136	0
bin	139	0
bin	142	0
bin	145	0
bin	148	0
bin	151	0
bin	154	0
bin	157	0
bin	160	0
bin	163	0
bin	166	0
bin	169	0
bin	172	0
bin	175	0
bin	178	0
bin	181	0
bin	184	0
bin	187	0
bin	190	0
bin	193	0
bin	196	0
bin	199	0
bin	202	0
bin	205	0
bin	208	0
bin	211	0
bin	214	0
bin	217	0
bin	220	0
bin	223	0
bin	226	1
bin	229	0
bin	232	0
bin	235	0
bin	238	0
bin	241	0
bin	244	0
bin	247	0
bin	250	0
bin	253	0
bin	256	0
bin	259	0
bin	262	0
bin	265	0
bin	268	0
bin	271	0
bin	274	0
bin	277	0
bin	280	0
bin	283	0
bin	286	0
bin	289	0
bin	292	0
bin	295	0
bin	298	0
bin	301	0
bin	304	0
bin	307	0
bin	310	0
bin	313	0
bin	316	0
bin	319	0
bin	322	0
bin	325	0
bin	328	0
bin	331	0
bin	334	0
bin	337	0
bin	340	0
statistic scenarioOpp.node[182].netw 	"Histogram for total interContact duration"
field count 41
field mean 406.31707317073
field stddev 214.23835312852
field sum 16659
field sqrsum 8604759
field min 0
field max 882
attr type  int
bin	-INF	0
bin	-441	0
bin	-432	0
bin	-423	0
bin	-414	0
bin	-405	0
bin	-396	0
bin	-387	0
bin	-378	0
bin	-369	0
bin	-360	0
bin	-351	0
bin	-342	0
bin	-333	0
bin	-324	0
bin	-315	0
bin	-306	0
bin	-297	0
bin	-288	0
bin	-279	0
bin	-270	0
bin	-261	0
bin	-252	0
bin	-243	0
bin	-234	0
bin	-225	0
bin	-216	0
bin	-207	0
bin	-198	0
bin	-189	0
bin	-180	0
bin	-171	0
bin	-162	0
bin	-153	0
bin	-144	0
bin	-135	0
bin	-126	0
bin	-117	0
bin	-108	0
bin	-99	0
bin	-90	0
bin	-81	0
bin	-72	0
bin	-63	0
bin	-54	0
bin	-45	0
bin	-36	0
bin	-27	0
bin	-18	0
bin	-9	0
bin	0	3
bin	9	0
bin	18	0
bin	27	0
bin	36	0
bin	45	0
bin	54	0
bin	63	0
bin	72	0
bin	81	0
bin	90	0
bin	99	0
bin	108	0
bin	117	0
bin	126	0
bin	135	2
bin	144	1
bin	153	0
bin	162	0
bin	171	0
bin	180	0
bin	189	0
bin	198	0
bin	207	0
bin	216	0
bin	225	0
bin	234	0
bin	243	0
bin	252	0
bin	261	0
bin	270	3
bin	279	1
bin	288	6
bin	297	0
bin	306	0
bin	315	0
bin	324	0
bin	333	0
bin	342	0
bin	351	0
bin	360	0
bin	369	0
bin	378	0
bin	387	0
bin	396	0
bin	405	0
bin	414	0
bin	423	0
bin	432	13
bin	441	3
bin	450	0
bin	459	0
bin	468	0
bin	477	0
bin	486	0
bin	495	0
bin	504	0
bin	513	0
bin	522	0
bin	531	1
bin	540	0
bin	549	0
bin	558	0
bin	567	0
bin	576	2
bin	585	0
bin	594	1
bin	603	0
bin	612	0
bin	621	0
bin	630	0
bin	639	0
bin	648	0
bin	657	0
bin	666	0
bin	675	0
bin	684	0
bin	693	0
bin	702	0
bin	711	0
bin	720	1
bin	729	1
bin	738	0
bin	747	0
bin	756	0
bin	765	0
bin	774	0
bin	783	0
bin	792	0
bin	801	0
bin	810	0
bin	819	0
bin	828	0
bin	837	0
bin	846	0
bin	855	1
bin	864	0
bin	873	1
bin	882	1
bin	891	0
bin	900	0
bin	909	0
bin	918	0
bin	927	0
bin	936	0
bin	945	0
bin	954	0
bin	963	0
bin	972	0
bin	981	0
bin	990	0
bin	999	0
bin	1008	0
bin	1017	0
bin	1026	0
bin	1035	0
bin	1044	0
bin	1053	0
bin	1062	0
bin	1071	0
bin	1080	0
bin	1089	0
bin	1098	0
bin	1107	0
bin	1116	0
bin	1125	0
bin	1134	0
bin	1143	0
bin	1152	0
bin	1161	0
bin	1170	0
bin	1179	0
bin	1188	0
bin	1197	0
bin	1206	0
bin	1215	0
bin	1224	0
bin	1233	0
bin	1242	0
bin	1251	0
bin	1260	0
bin	1269	0
bin	1278	0
bin	1287	0
bin	1296	0
bin	1305	0
bin	1314	0
bin	1323	0
scalar scenarioOpp.node[182].mobility 	Community 	0
scalar scenarioOpp.node[196].appl 	"# Bundle Sent" 	0
scalar scenarioOpp.node[196].appl 	"# Bundle Received" 	0
scalar scenarioOpp.node[196].netw 	"# L3Sent" 	864
scalar scenarioOpp.node[196].netw 	"# L3Received" 	618
scalar scenarioOpp.node[196].netw 	"# of Contacts" 	223
scalar scenarioOpp.node[196].netw 	"# of InterContacts" 	105
scalar scenarioOpp.node[196].netw 	"# Bundles at L3" 	232
statistic scenarioOpp.node[196].netw 	"Histogram for max nbr repeated contact"
field count 37
field mean 2.8378378378378
field stddev 10.356193835128
field sum 105
field sqrsum 4159
field min 1
field max 64
attr type  int
bin	-INF	0
bin	-31	0
bin	-30	0
bin	-29	0
bin	-28	0
bin	-27	0
bin	-26	0
bin	-25	0
bin	-24	0
bin	-23	0
bin	-22	0
bin	-21	0
bin	-20	0
bin	-19	0
bin	-18	0
bin	-17	0
bin	-16	0
bin	-15	0
bin	-14	0
bin	-13	0
bin	-12	0
bin	-11	0
bin	-10	0
bin	-9	0
bin	-8	0
bin	-7	0
bin	-6	0
bin	-5	0
bin	-4	0
bin	-3	0
bin	-2	0
bin	-1	0
bin	0	0
bin	1	34
bin	2	1
bin	3	0
bin	4	0
bin	5	1
bin	6	0
bin	7	0
bin	8	0
bin	9	0
bin	10	0
bin	11	0
bin	12	0
bin	13	0
bin	14	0
bin	15	0
bin	16	0
bin	17	0
bin	18	0
bin	19	0
bin	20	0
bin	21	0
bin	22	0
bin	23	0
bin	24	0
bin	25	0
bin	26	0
bin	27	0
bin	28	0
bin	29	0
bin	30	0
bin	31	0
bin	32	0
bin	33	0
bin	34	0
bin	35	0
bin	36	0
bin	37	0
bin	38	0
bin	39	0
bin	40	0
bin	41	0
bin	42	0
bin	43	0
bin	44	0
bin	45	0
bin	46	0
bin	47	0
bin	48	0
bin	49	0
bin	50	0
bin	51	0
bin	52	0
bin	53	0
bin	54	0
bin	55	0
bin	56	0
bin	57	0
bin	58	0
bin	59	0
bin	60	0
bin	61	0
bin	62	0
bin	63	0
bin	64	1
bin	65	0
bin	66	0
bin	67	0
bin	68	0
bin	69	0
bin	70	0
bin	71	0
bin	72	0
bin	73	0
bin	74	0
bin	75	0
bin	76	0
bin	77	0
bin	78	0
bin	79	0
bin	80	0
bin	81	0
bin	82	0
bin	83	0
bin	84	0
bin	85	0
bin	86	0
bin	87	0
bin	88	0
bin	89	0
bin	90	0
bin	91	0
bin	92	0
bin	93	0
bin	94	0
bin	95	0
bin	96	0
scalar scenarioOpp.node[196].netw 	"Bars for #repeated 1" 	37
scalar scenarioOpp.node[196].netw 	"Bars for #repeated 2" 	3
scalar scenarioOpp.node[196].netw 	"Bars for #repeated 3" 	2
scalar scenarioOpp.node[196].netw 	"Bars for #repeated 4" 	2
scalar scenarioOpp.node[196].netw 	"Bars for #repeated 5" 	61
scalar scenarioOpp.node[196].netw 	"Contact CDF LQ1 #repeated 1" 	2
scalar scenarioOpp.node[196].netw 	"Contact CDF G1LQ5 #repeated 1" 	0
scalar scenarioOpp.node[196].netw 	"Contact CDF G5LQ20 #repeated 1" 	33
scalar scenarioOpp.node[196].netw 	"Contact CDF G20LQ50 #repeated 1" 	1
scalar scenarioOpp.node[196].netw 	"Contact CDF G50LQ100 #repeated 1" 	0
scalar scenarioOpp.node[196].netw 	"Contact CDF G100LQ500 #repeated 1" 	0
scalar scenarioOpp.node[196].netw 	"Contact CDF G500 #repeated 1" 	0
scalar scenarioOpp.node[196].netw 	"Contact CDF LQ1 #repeated 2" 	1
scalar scenarioOpp.node[196].netw 	"Contact CDF G1LQ5 #repeated 2" 	0
scalar scenarioOpp.node[196].netw 	"Contact CDF G5LQ20 #repeated 2" 	2
scalar scenarioOpp.node[196].netw 	"Contact CDF G20LQ50 #repeated 2" 	0
scalar scenarioOpp.node[196].netw 	"Contact CDF G50LQ100 #repeated 2" 	0
scalar scenarioOpp.node[196].netw 	"Contact CDF G100LQ500 #repeated 2" 	0
scalar scenarioOpp.node[196].netw 	"Contact CDF G500 #repeated 2" 	0
scalar scenarioOpp.node[196].netw 	"Contact CDF LQ1 #repeated 3" 	2
scalar scenarioOpp.node[196].netw 	"Contact CDF G1LQ5 #repeated 3" 	0
scalar scenarioOpp.node[196].netw 	"Contact CDF G5LQ20 #repeated 3" 	0
scalar scenarioOpp.node[196].netw 	"Contact CDF G20LQ50 #repeated 3" 	0
scalar scenarioOpp.node[196].netw 	"Contact CDF G50LQ100 #repeated 3" 	0
scalar scenarioOpp.node[196].netw 	"Contact CDF G100LQ500 #repeated 3" 	0
scalar scenarioOpp.node[196].netw 	"Contact CDF G500 #repeated 3" 	0
scalar scenarioOpp.node[196].netw 	"Contact CDF LQ1 #repeated 4" 	2
scalar scenarioOpp.node[196].netw 	"Contact CDF G1LQ5 #repeated 4" 	0
scalar scenarioOpp.node[196].netw 	"Contact CDF G5LQ20 #repeated 4" 	0
scalar scenarioOpp.node[196].netw 	"Contact CDF G20LQ50 #repeated 4" 	0
scalar scenarioOpp.node[196].netw 	"Contact CDF G50LQ100 #repeated 4" 	0
scalar scenarioOpp.node[196].netw 	"Contact CDF G100LQ500 #repeated 4" 	0
scalar scenarioOpp.node[196].netw 	"Contact CDF G500 #repeated 4" 	0
scalar scenarioOpp.node[196].netw 	"Contact CDF LQ1 #repeated 5" 	59
scalar scenarioOpp.node[196].netw 	"Contact CDF G1LQ5 #repeated 5" 	0
scalar scenarioOpp.node[196].netw 	"Contact CDF G5LQ20 #repeated 5" 	2
scalar scenarioOpp.node[196].netw 	"Contact CDF G20LQ50 #repeated 5" 	0
scalar scenarioOpp.node[196].netw 	"Contact CDF G50LQ100 #repeated 5" 	0
scalar scenarioOpp.node[196].netw 	"Contact CDF G100LQ500 #repeated 5" 	0
scalar scenarioOpp.node[196].netw 	"Contact CDF G500 #repeated 5" 	0
scalar scenarioOpp.node[196].netw 	"InterContact CDF LQ1 #repeated 1" 	1
scalar scenarioOpp.node[196].netw 	"InterContact CDF G1LQ5 #repeated 1" 	0
scalar scenarioOpp.node[196].netw 	"InterContact CDF G5LQ20 #repeated 1" 	0
scalar scenarioOpp.node[196].netw 	"InterContact CDF G20LQ50 #repeated 1" 	0
scalar scenarioOpp.node[196].netw 	"InterContact CDF G50LQ100 #repeated 1" 	1
scalar scenarioOpp.node[196].netw 	"InterContact CDF G100LQ500 #repeated 1" 	0
scalar scenarioOpp.node[196].netw 	"InterContact CDF G500 #repeated 1" 	7
scalar scenarioOpp.node[196].netw 	"InterContact CDF LQ1 #repeated 2" 	2
scalar scenarioOpp.node[196].netw 	"InterContact CDF G1LQ5 #repeated 2" 	0
scalar scenarioOpp.node[196].netw 	"InterContact CDF G5LQ20 #repeated 2" 	0
scalar scenarioOpp.node[196].netw 	"InterContact CDF G20LQ50 #repeated 2" 	0
scalar scenarioOpp.node[196].netw 	"InterContact CDF G50LQ100 #repeated 2" 	0
scalar scenarioOpp.node[196].netw 	"InterContact CDF G100LQ500 #repeated 2" 	0
scalar scenarioOpp.node[196].netw 	"InterContact CDF G500 #repeated 2" 	0
scalar scenarioOpp.node[196].netw 	"InterContact CDF LQ1 #repeated 3" 	2
scalar scenarioOpp.node[196].netw 	"InterContact CDF G1LQ5 #repeated 3" 	0
scalar scenarioOpp.node[196].netw 	"InterContact CDF G5LQ20 #repeated 3" 	0
scalar scenarioOpp.node[196].netw 	"InterContact CDF G20LQ50 #repeated 3" 	0
scalar scenarioOpp.node[196].netw 	"InterContact CDF G50LQ100 #repeated 3" 	0
scalar scenarioOpp.node[196].netw 	"InterContact CDF G100LQ500 #repeated 3" 	0
scalar scenarioOpp.node[196].netw 	"InterContact CDF G500 #repeated 3" 	0
scalar scenarioOpp.node[196].netw 	"InterContact CDF LQ1 #repeated 4" 	1
scalar scenarioOpp.node[196].netw 	"InterContact CDF G1LQ5 #repeated 4" 	0
scalar scenarioOpp.node[196].netw 	"InterContact CDF G5LQ20 #repeated 4" 	0
scalar scenarioOpp.node[196].netw 	"InterContact CDF G20LQ50 #repeated 4" 	0
scalar scenarioOpp.node[196].netw 	"InterContact CDF G50LQ100 #repeated 4" 	1
scalar scenarioOpp.node[196].netw 	"InterContact CDF G100LQ500 #repeated 4" 	0
scalar scenarioOpp.node[196].netw 	"InterContact CDF G500 #repeated 4" 	0
scalar scenarioOpp.node[196].netw 	"InterContact CDF LQ1 #repeated 5" 	61
scalar scenarioOpp.node[196].netw 	"InterContact CDF G1LQ5 #repeated 5" 	0
scalar scenarioOpp.node[196].netw 	"InterContact CDF G5LQ20 #repeated 5" 	0
scalar scenarioOpp.node[196].netw 	"InterContact CDF G20LQ50 #repeated 5" 	0
scalar scenarioOpp.node[196].netw 	"InterContact CDF G50LQ100 #repeated 5" 	0
scalar scenarioOpp.node[196].netw 	"InterContact CDF G100LQ500 #repeated 5" 	0
scalar scenarioOpp.node[196].netw 	"InterContact CDF G500 #repeated 5" 	0
statistic scenarioOpp.node[196].netw 	"Histogram for total contact duration"
field count 36
field mean 13.111111111111
field stddev 12.037507520313
field sum 472
field sqrsum 11260
field min 9
field max 80
attr type  int
bin	-INF	0
bin	-27	0
bin	-26	0
bin	-25	0
bin	-24	0
bin	-23	0
bin	-22	0
bin	-21	0
bin	-20	0
bin	-19	0
bin	-18	0
bin	-17	0
bin	-16	0
bin	-15	0
bin	-14	0
bin	-13	0
bin	-12	0
bin	-11	0
bin	-10	0
bin	-9	0
bin	-8	0
bin	-7	0
bin	-6	0
bin	-5	0
bin	-4	0
bin	-3	0
bin	-2	0
bin	-1	0
bin	0	0
bin	1	0
bin	2	0
bin	3	0
bin	4	0
bin	5	0
bin	6	0
bin	7	0
bin	8	0
bin	9	17
bin	10	10
bin	11	0
bin	12	1
bin	13	0
bin	14	0
bin	15	2
bin	16	0
bin	17	0
bin	18	2
bin	19	0
bin	20	2
bin	21	1
bin	22	0
bin	23	0
bin	24	0
bin	25	0
bin	26	0
bin	27	0
bin	28	0
bin	29	0
bin	30	0
bin	31	0
bin	32	0
bin	33	0
bin	34	0
bin	35	0
bin	36	0
bin	37	0
bin	38	0
bin	39	0
bin	40	0
bin	41	0
bin	42	0
bin	43	0
bin	44	0
bin	45	0
bin	46	0
bin	47	0
bin	48	0
bin	49	0
bin	50	0
bin	51	0
bin	52	0
bin	53	0
bin	54	0
bin	55	0
bin	56	0
bin	57	0
bin	58	0
bin	59	0
bin	60	0
bin	61	0
bin	62	0
bin	63	0
bin	64	0
bin	65	0
bin	66	0
bin	67	0
bin	68	0
bin	69	0
bin	70	0
bin	71	0
bin	72	0
bin	73	0
bin	74	0
bin	75	0
bin	76	0
bin	77	0
bin	78	0
bin	79	0
bin	80	1
bin	81	0
bin	82	0
bin	83	0
bin	84	0
bin	85	0
bin	86	0
bin	87	0
bin	88	0
bin	89	0
bin	90	0
bin	91	0
bin	92	0
bin	93	0
bin	94	0
bin	95	0
bin	96	0
bin	97	0
bin	98	0
bin	99	0
bin	100	0
bin	101	0
bin	102	0
bin	103	0
bin	104	0
bin	105	0
bin	106	0
bin	107	0
bin	108	0
bin	109	0
bin	110	0
bin	111	0
bin	112	0
bin	113	0
bin	114	0
bin	115	0
bin	116	0
statistic scenarioOpp.node[196].netw 	"Histogram for total interContact duration"
field count 37
field mean 400.94594594595
field stddev 203.11025275641
field sum 14835
field sqrsum 7433169
field min 0
field max 878
attr type  int
bin	-INF	0
bin	-443	0
bin	-434	0
bin	-425	0
bin	-416	0
bin	-407	0
bin	-398	0
bin	-389	0
bin	-380	0
bin	-371	0
bin	-362	0
bin	-353	0
bin	-344	0
bin	-335	0
bin	-326	0
bin	-317	0
bin	-308	0
bin	-299	0
bin	-290	0
bin	-281	0
bin	-272	0
bin	-263	0
bin	-254	0
bin	-245	0
bin	-236	0
bin	-227	0
bin	-218	0
bin	-209	0
bin	-200	0
bin	-191	0
bin	-182	0
bin	-173	0
bin	-164	0
bin	-155	0
bin	-146	0
bin	-137	0
bin	-128	0
bin	-119	0
bin	-110	0
bin	-101	0
bin	-92	0
bin	-83	0
bin	-74	0
bin	-65	0
bin	-56	0
bin	-47	0
bin	-38	0
bin	-29	0
bin	-20	0
bin	-11	0
bin	-2	1
bin	7	0
bin	16	0
bin	25	0
bin	34	0
bin	43	0
bin	52	0
bin	61	0
bin	70	0
bin	79	0
bin	88	0
bin	97	0
bin	106	0
bin	115	0
bin	124	1
bin	133	3
bin	142	2
bin	151	0
bin	160	0
bin	169	0
bin	178	0
bin	187	0
bin	196	0
bin	205	0
bin	214	0
bin	223	0
bin	232	0
bin	241	0
bin	250	0
bin	259	0
bin	268	0
bin	277	2
bin	286	4
bin	295	2
bin	304	0
bin	313	0
bin	322	0
bin	331	0
bin	340	0
bin	349	0
bin	358	0
bin	367	0
bin	376	0
bin	385	0
bin	394	0
bin	403	0
bin	412	0
bin	421	0
bin	430	7
bin	439	7
bin	448	0
bin	457	0
bin	466	0
bin	475	0
bin	484	0
bin	493	0
bin	502	0
bin	511	0
bin	520	0
bin	529	0
bin	538	0
bin	547	0
bin	556	0
bin	565	0
bin	574	3
bin	583	1
bin	592	0
bin	601	0
bin	610	0
bin	619	0
bin	628	0
bin	637	0
bin	646	0
bin	655	0
bin	664	0
bin	673	0
bin	682	0
bin	691	0
bin	700	0
bin	709	0
bin	718	0
bin	727	2
bin	736	0
bin	745	0
bin	754	0
bin	763	0
bin	772	0
bin	781	0
bin	790	0
bin	799	0
bin	808	0
bin	817	0
bin	826	0
bin	835	0
bin	844	0
bin	853	0
bin	862	0
bin	871	2
bin	880	0
bin	889	0
bin	898	0
bin	907	0
bin	916	0
bin	925	0
bin	934	0
bin	943	0
bin	952	0
bin	961	0
bin	970	0
bin	979	0
bin	988	0
bin	997	0
bin	1006	0
bin	1015	0
bin	1024	0
bin	1033	0
bin	1042	0
bin	1051	0
bin	1060	0
bin	1069	0
bin	1078	0
bin	1087	0
bin	1096	0
bin	1105	0
bin	1114	0
bin	1123	0
bin	1132	0
bin	1141	0
bin	1150	0
bin	1159	0
bin	1168	0
bin	1177	0
bin	1186	0
bin	1195	0
bin	1204	0
bin	1213	0
bin	1222	0
bin	1231	0
bin	1240	0
bin	1249	0
bin	1258	0
bin	1267	0
bin	1276	0
bin	1285	0
bin	1294	0
bin	1303	0
bin	1312	0
bin	1321	0
scalar scenarioOpp.node[196].mobility 	Community 	0
scalar scenarioOpp.node[210].appl 	"# Bundle Sent" 	0
scalar scenarioOpp.node[210].appl 	"# Bundle Received" 	0
scalar scenarioOpp.node[210].netw 	"# L3Sent" 	730
scalar scenarioOpp.node[210].netw 	"# L3Received" 	653
scalar scenarioOpp.node[210].netw 	"# of Contacts" 	230
scalar scenarioOpp.node[210].netw 	"# of InterContacts" 	129
scalar scenarioOpp.node[210].netw 	"# Bundles at L3" 	277
statistic scenarioOpp.node[210].netw 	"Histogram for max nbr repeated contact"
field count 31
field mean 4.1612903225806
field stddev 11.849322833517
field sum 129
field sqrsum 4749
field min 1
field max 64
attr type  int
bin	-INF	0
bin	-31	0
bin	-30	0
bin	-29	0
bin	-28	0
bin	-27	0
bin	-26	0
bin	-25	0
bin	-24	0
bin	-23	0
bin	-22	0
bin	-21	0
bin	-20	0
bin	-19	0
bin	-18	0
bin	-17	0
bin	-16	0
bin	-15	0
bin	-14	0
bin	-13	0
bin	-12	0
bin	-11	0
bin	-10	0
bin	-9	0
bin	-8	0
bin	-7	0
bin	-6	0
bin	-5	0
bin	-4	0
bin	-3	0
bin	-2	0
bin	-1	0
bin	0	0
bin	1	26
bin	2	0
bin	3	1
bin	4	0
bin	5	1
bin	6	0
bin	7	0
bin	8	1
bin	9	0
bin	10	0
bin	11	0
bin	12	0
bin	13	0
bin	14	0
bin	15	0
bin	16	0
bin	17	0
bin	18	0
bin	19	0
bin	20	0
bin	21	0
bin	22	0
bin	23	1
bin	24	0
bin	25	0
bin	26	0
bin	27	0
bin	28	0
bin	29	0
bin	30	0
bin	31	0
bin	32	0
bin	33	0
bin	34	0
bin	35	0
bin	36	0
bin	37	0
bin	38	0
bin	39	0
bin	40	0
bin	41	0
bin	42	0
bin	43	0
bin	44	0
bin	45	0
bin	46	0
bin	47	0
bin	48	0
bin	49	0
bin	50	0
bin	51	0
bin	52	0
bin	53	0
bin	54	0
bin	55	0
bin	56	0
bin	57	0
bin	58	0
bin	59	0
bin	60	0
bin	61	0
bin	62	0
bin	63	0
bin	64	1
bin	65	0
bin	66	0
bin	67	0
bin	68	0
bin	69	0
bin	70	0
bin	71	0
bin	72	0
bin	73	0
bin	74	0
bin	75	0
bin	76	0
bin	77	0
bin	78	0
bin	79	0
bin	80	0
bin	81	0
bin	82	0
bin	83	0
bin	84	0
bin	85	0
bin	86	0
bin	87	0
bin	88	0
bin	89	0
bin	90	0
bin	91	0
bin	92	0
bin	93	0
bin	94	0
bin	95	0
bin	96	0
scalar scenarioOpp.node[210].netw 	"Bars for #repeated 1" 	31
scalar scenarioOpp.node[210].netw 	"Bars for #repeated 2" 	5
scalar scenarioOpp.node[210].netw 	"Bars for #repeated 3" 	5
[...]
bin	1530.7562522591	2
bin	1633.1635463754	1
bin	1735.5708404918	0
bin	1837.9781346082	0
bin	1940.3854287246	0
bin	2042.7927228409	0
bin	2145.2000169573	0
bin	2247.6073110737	0
bin	2350.0146051901	0
bin	2452.4218993064	0
statistic scenarioOpp.VPA[13].appl 	"HopCount for 1st Copy"
field count 63
field mean 3.2063492063492
field stddev 0.98633780378978
field sum 202
field sqrsum 708
field min 2
field max 6
attr type  int
bin	-INF	0
bin	0	0
bin	1	0
bin	2	14
bin	3	32
bin	4	8
bin	5	8
bin	6	1
bin	7	0
bin	8	0
scalar scenarioOpp.VPA[13].netw 	"# L3Sent" 	1842
scalar scenarioOpp.VPA[13].netw 	"# L3Received" 	1222
scalar scenarioOpp.VPA[13].netw 	"# of Contacts" 	228
scalar scenarioOpp.VPA[13].netw 	"# of InterContacts" 	113
scalar scenarioOpp.VPA[13].netw 	"# Bundles at L3" 	542
statistic scenarioOpp.VPA[13].netw 	"Histogram for max nbr repeated contact"
field count 61
field mean 1.8524590163934
field stddev 1.3144842534085
field sum 113
field sqrsum 313
field min 1
field max 6
attr type  int
bin	-INF	0
bin	-2	0
bin	-1	0
bin	0	0
bin	1	36
bin	2	12
bin	3	4
bin	4	6
bin	5	1
bin	6	2
bin	7	0
bin	8	0
bin	9	0
scalar scenarioOpp.VPA[13].netw 	"Bars for #repeated 1" 	61
scalar scenarioOpp.VPA[13].netw 	"Bars for #repeated 2" 	25
scalar scenarioOpp.VPA[13].netw 	"Bars for #repeated 3" 	13
scalar scenarioOpp.VPA[13].netw 	"Bars for #repeated 4" 	9
scalar scenarioOpp.VPA[13].netw 	"Bars for #repeated 5" 	5
scalar scenarioOpp.VPA[13].netw 	"Contact CDF LQ1 #repeated 1" 	0
scalar scenarioOpp.VPA[13].netw 	"Contact CDF G1LQ5 #repeated 1" 	0
scalar scenarioOpp.VPA[13].netw 	"Contact CDF G5LQ20 #repeated 1" 	50
scalar scenarioOpp.VPA[13].netw 	"Contact CDF G20LQ50 #repeated 1" 	10
scalar scenarioOpp.VPA[13].netw 	"Contact CDF G50LQ100 #repeated 1" 	0
scalar scenarioOpp.VPA[13].netw 	"Contact CDF G100LQ500 #repeated 1" 	0
scalar scenarioOpp.VPA[13].netw 	"Contact CDF G500 #repeated 1" 	0
scalar scenarioOpp.VPA[13].netw 	"Contact CDF LQ1 #repeated 2" 	0
scalar scenarioOpp.VPA[13].netw 	"Contact CDF G1LQ5 #repeated 2" 	0
scalar scenarioOpp.VPA[13].netw 	"Contact CDF G5LQ20 #repeated 2" 	20
scalar scenarioOpp.VPA[13].netw 	"Contact CDF G20LQ50 #repeated 2" 	5
scalar scenarioOpp.VPA[13].netw 	"Contact CDF G50LQ100 #repeated 2" 	0
scalar scenarioOpp.VPA[13].netw 	"Contact CDF G100LQ500 #repeated 2" 	0
scalar scenarioOpp.VPA[13].netw 	"Contact CDF G500 #repeated 2" 	0
scalar scenarioOpp.VPA[13].netw 	"Contact CDF LQ1 #repeated 3" 	0
scalar scenarioOpp.VPA[13].netw 	"Contact CDF G1LQ5 #repeated 3" 	0
scalar scenarioOpp.VPA[13].netw 	"Contact CDF G5LQ20 #repeated 3" 	8
scalar scenarioOpp.VPA[13].netw 	"Contact CDF G20LQ50 #repeated 3" 	5
scalar scenarioOpp.VPA[13].netw 	"Contact CDF G50LQ100 #repeated 3" 	0
scalar scenarioOpp.VPA[13].netw 	"Contact CDF G100LQ500 #repeated 3" 	0
scalar scenarioOpp.VPA[13].netw 	"Contact CDF G500 #repeated 3" 	0
scalar scenarioOpp.VPA[13].netw 	"Contact CDF LQ1 #repeated 4" 	0
scalar scenarioOpp.VPA[13].netw 	"Contact CDF G1LQ5 #repeated 4" 	0
scalar scenarioOpp.VPA[13].netw 	"Contact CDF G5LQ20 #repeated 4" 	8
scalar scenarioOpp.VPA[13].netw 	"Contact CDF G20LQ50 #repeated 4" 	1
scalar scenarioOpp.VPA[13].netw 	"Contact CDF G50LQ100 #repeated 4" 	0
scalar scenarioOpp.VPA[13].netw 	"Contact CDF G100LQ500 #repeated 4" 	0
scalar scenarioOpp.VPA[13].netw 	"Contact CDF G500 #repeated 4" 	0
scalar scenarioOpp.VPA[13].netw 	"Contact CDF LQ1 #repeated 5" 	0
scalar scenarioOpp.VPA[13].netw 	"Contact CDF G1LQ5 #repeated 5" 	0
scalar scenarioOpp.VPA[13].netw 	"Contact CDF G5LQ20 #repeated 5" 	3
scalar scenarioOpp.VPA[13].netw 	"Contact CDF G20LQ50 #repeated 5" 	2
scalar scenarioOpp.VPA[13].netw 	"Contact CDF G50LQ100 #repeated 5" 	0
scalar scenarioOpp.VPA[13].netw 	"Contact CDF G100LQ500 #repeated 5" 	0
scalar scenarioOpp.VPA[13].netw 	"Contact CDF G500 #repeated 5" 	0
scalar scenarioOpp.VPA[13].netw 	"InterContact CDF LQ1 #repeated 1" 	0
scalar scenarioOpp.VPA[13].netw 	"InterContact CDF G1LQ5 #repeated 1" 	0
scalar scenarioOpp.VPA[13].netw 	"InterContact CDF G5LQ20 #repeated 1" 	0
scalar scenarioOpp.VPA[13].netw 	"InterContact CDF G20LQ50 #repeated 1" 	0
scalar scenarioOpp.VPA[13].netw 	"InterContact CDF G50LQ100 #repeated 1" 	0
scalar scenarioOpp.VPA[13].netw 	"InterContact CDF G100LQ500 #repeated 1" 	0
scalar scenarioOpp.VPA[13].netw 	"InterContact CDF G500 #repeated 1" 	32
scalar scenarioOpp.VPA[13].netw 	"InterContact CDF LQ1 #repeated 2" 	0
scalar scenarioOpp.VPA[13].netw 	"InterContact CDF G1LQ5 #repeated 2" 	0
scalar scenarioOpp.VPA[13].netw 	"InterContact CDF G5LQ20 #repeated 2" 	0
scalar scenarioOpp.VPA[13].netw 	"InterContact CDF G20LQ50 #repeated 2" 	0
scalar scenarioOpp.VPA[13].netw 	"InterContact CDF G50LQ100 #repeated 2" 	0
scalar scenarioOpp.VPA[13].netw 	"InterContact CDF G100LQ500 #repeated 2" 	0
scalar scenarioOpp.VPA[13].netw 	"InterContact CDF G500 #repeated 2" 	11
scalar scenarioOpp.VPA[13].netw 	"InterContact CDF LQ1 #repeated 3" 	0
scalar scenarioOpp.VPA[13].netw 	"InterContact CDF G1LQ5 #repeated 3" 	0
scalar scenarioOpp.VPA[13].netw 	"InterContact CDF G5LQ20 #repeated 3" 	0
scalar scenarioOpp.VPA[13].netw 	"InterContact CDF G20LQ50 #repeated 3" 	0
scalar scenarioOpp.VPA[13].netw 	"InterContact CDF G50LQ100 #repeated 3" 	0
scalar scenarioOpp.VPA[13].netw 	"InterContact CDF G100LQ500 #repeated 3" 	0
scalar scenarioOpp.VPA[13].netw 	"InterContact CDF G500 #repeated 3" 	13
scalar scenarioOpp.VPA[13].netw 	"InterContact CDF LQ1 #repeated 4" 	0
scalar scenarioOpp.VPA[13].netw 	"InterContact CDF G1LQ5 #repeated 4" 	0
scalar scenarioOpp.VPA[13].netw 	"InterContact CDF G5LQ20 #repeated 4" 	0
scalar scenarioOpp.VPA[13].netw 	"InterContact CDF G20LQ50 #repeated 4" 	0
scalar scenarioOpp.VPA[13].netw 	"InterContact CDF G50LQ100 #repeated 4" 	0
scalar scenarioOpp.VPA[13].netw 	"InterContact CDF G100LQ500 #repeated 4" 	0
scalar scenarioOpp.VPA[13].netw 	"InterContact CDF G500 #repeated 4" 	2
scalar scenarioOpp.VPA[13].netw 	"InterContact CDF LQ1 #repeated 5" 	0
scalar scenarioOpp.VPA[13].netw 	"InterContact CDF G1LQ5 #repeated 5" 	0
scalar scenarioOpp.VPA[13].netw 	"InterContact CDF G5LQ20 #repeated 5" 	0
scalar scenarioOpp.VPA[13].netw 	"InterContact CDF G20LQ50 #repeated 5" 	0
scalar scenarioOpp.VPA[13].netw 	"InterContact CDF G50LQ100 #repeated 5" 	0
scalar scenarioOpp.VPA[13].netw 	"InterContact CDF G100LQ500 #repeated 5" 	0
scalar scenarioOpp.VPA[13].netw 	"InterContact CDF G500 #repeated 5" 	1
statistic scenarioOpp.VPA[13].netw 	"Histogram for total contact duration"
field count 60
field mean 38.883333333333
field stddev 27.558315160098
field sum 2333
field sqrsum 135523
field min 19
field max 123
attr type  int
bin	-INF	0
bin	-33	0
bin	-31	0
bin	-29	0
bin	-27	0
bin	-25	0
bin	-23	0
bin	-21	0
bin	-19	0
bin	-17	0
bin	-15	0
bin	-13	0
bin	-11	0
bin	-9	0
bin	-7	0
bin	-5	0
bin	-3	0
bin	-1	0
bin	1	0
bin	3	0
bin	5	0
bin	7	0
bin	9	0
bin	11	0
bin	13	0
bin	15	0
bin	17	0
bin	19	29
bin	21	4
bin	23	0
bin	25	2
bin	27	0
bin	29	0
bin	31	0
bin	33	0
bin	35	0
bin	37	1
bin	39	5
bin	41	3
bin	43	0
bin	45	1
bin	47	1
bin	49	0
bin	51	0
bin	53	0
bin	55	1
bin	57	0
bin	59	1
bin	61	0
bin	63	0
bin	65	2
bin	67	0
bin	69	0
bin	71	1
bin	73	0
bin	75	0
bin	77	0
bin	79	3
bin	81	1
bin	83	0
bin	85	1
bin	87	1
bin	89	0
bin	91	0
bin	93	0
bin	95	0
bin	97	0
bin	99	0
bin	101	0
bin	103	0
bin	105	1
bin	107	0
bin	109	0
bin	111	0
bin	113	0
bin	115	0
bin	117	0
bin	119	1
bin	121	0
bin	123	1
bin	125	0
bin	127	0
bin	129	0
bin	131	0
bin	133	0
bin	135	0
bin	137	0
bin	139	0
bin	141	0
bin	143	0
bin	145	0
bin	147	0
bin	149	0
bin	151	0
bin	153	0
bin	155	0
bin	157	0
bin	159	0
bin	161	0
bin	163	0
bin	165	0
bin	167	0
bin	169	0
bin	171	0
bin	173	0
bin	175	0
statistic scenarioOpp.VPA[13].netw 	"Histogram for total interContact duration"
field count 61
field mean 986.75409836066
field stddev 855.91626646025
field sum 60192
field sqrsum 103350262
field min 276
field max 3124
attr type  int
bin	-INF	0
bin	-1156	0
bin	-1127	0
bin	-1098	0
bin	-1069	0
bin	-1040	0
bin	-1011	0
bin	-982	0
bin	-953	0
bin	-924	0
bin	-895	0
bin	-866	0
bin	-837	0
bin	-808	0
bin	-779	0
bin	-750	0
bin	-721	0
bin	-692	0
bin	-663	0
bin	-634	0
bin	-605	0
bin	-576	0
bin	-547	0
bin	-518	0
bin	-489	0
bin	-460	0
bin	-431	0
bin	-402	0
bin	-373	0
bin	-344	0
bin	-315	0
bin	-286	0
bin	-257	0
bin	-228	0
bin	-199	0
bin	-170	0
bin	-141	0
bin	-112	0
bin	-83	0
bin	-54	0
bin	-25	0
bin	4	0
bin	33	0
bin	62	0
bin	91	0
bin	120	0
bin	149	0
bin	178	0
bin	207	0
bin	236	0
bin	265	27
bin	294	0
bin	323	0
bin	352	0
bin	381	0
bin	410	0
bin	439	0
bin	468	0
bin	497	0
bin	526	1
bin	555	5
bin	584	0
bin	613	0
bin	642	0
bin	671	0
bin	700	0
bin	729	0
bin	758	0
bin	787	0
bin	816	3
bin	845	1
bin	874	0
bin	903	0
bin	932	0
bin	961	0
bin	990	0
bin	1019	0
bin	1048	0
bin	1077	0
bin	1106	1
bin	1135	2
bin	1164	0
bin	1193	0
bin	1222	0
bin	1251	0
bin	1280	0
bin	1309	0
bin	1338	0
bin	1367	0
bin	1396	2
bin	1425	3
bin	1454	0
bin	1483	0
bin	1512	0
bin	1541	0
bin	1570	0
bin	1599	0
bin	1628	0
bin	1657	1
bin	1686	1
bin	1715	5
bin	1744	0
bin	1773	0
bin	1802	0
bin	1831	0
bin	1860	0
bin	1889	0
bin	1918	0
bin	1947	0
bin	1976	1
bin	2005	0
bin	2034	0
bin	2063	0
bin	2092	0
bin	2121	0
bin	2150	0
bin	2179	0
bin	2208	1
bin	2237	0
bin	2266	1
bin	2295	0
bin	2324	0
bin	2353	0
bin	2382	0
bin	2411	0
bin	2440	0
bin	2469	0
bin	2498	0
bin	2527	1
bin	2556	1
bin	2585	0
bin	2614	0
bin	2643	0
bin	2672	0
bin	2701	0
bin	2730	0
bin	2759	0
bin	2788	0
bin	2817	1
bin	2846	0
bin	2875	2
bin	2904	0
bin	2933	0
bin	2962	0
bin	2991	0
bin	3020	0
bin	3049	0
bin	3078	0
bin	3107	1
bin	3136	0
bin	3165	0
bin	3194	0
bin	3223	0
bin	3252	0
bin	3281	0
bin	3310	0
bin	3339	0
bin	3368	0
bin	3397	0
bin	3426	0
bin	3455	0
bin	3484	0
bin	3513	0
bin	3542	0
bin	3571	0
bin	3600	0
bin	3629	0
bin	3658	0
bin	3687	0
bin	3716	0
bin	3745	0
bin	3774	0
bin	3803	0
bin	3832	0
bin	3861	0
bin	3890	0
bin	3919	0
bin	3948	0
bin	3977	0
bin	4006	0
bin	4035	0
bin	4064	0
bin	4093	0
bin	4122	0
bin	4151	0
bin	4180	0
bin	4209	0
bin	4238	0
bin	4267	0
bin	4296	0
bin	4325	0
bin	4354	0
bin	4383	0
bin	4412	0
bin	4441	0
bin	4470	0
bin	4499	0
bin	4528	0
bin	4557	0
scalar scenarioOpp.VPA[14].appl 	"# Bundle Sent" 	72
scalar scenarioOpp.VPA[14].appl 	"# Bundle Received" 	54
scalar scenarioOpp.VPA[14].appl 	"# Unique Bundle Received" 	54
statistic scenarioOpp.VPA[14].appl 	"Delays for 1st Copy"
field count 54
field mean 839.32914575306
field stddev 404.15290731577
field sum 45323.773870665
field sqrsum 46698561.747235
field min 200.65537201896
field max 2017.7650560828
bin	-INF	0
bin	-707.89947001298	0
bin	-586.75882440872	0
bin	-465.61817880446	0
bin	-344.4775332002	0
bin	-223.33688759595	0
bin	-102.19624199169	0
bin	18.944403612571	0
bin	140.08504921683	1
bin	261.22569482109	6
bin	382.36634042535	5
bin	503.50698602961	4
bin	624.64763163386	6
bin	745.78827723812	9
bin	866.92892284238	8
bin	988.06956844664	3
bin	1109.2102140509	5
bin	1230.3508596552	1
bin	1351.4915052594	2
bin	1472.6321508637	1
bin	1593.7727964679	1
bin	1714.9134420722	0
bin	1836.0540876764	1
bin	1957.1947332807	1
bin	2078.335378885	0
bin	2199.4760244892	0
bin	2320.6166700935	0
bin	2441.7573156977	0
bin	2562.897961302	0
bin	2684.0386069063	0
bin	2805.1792525105	0
bin	2926.3198981148	0
statistic scenarioOpp.VPA[14].appl 	"HopCount for 1st Copy"
field count 54
field mean 3.8148148148148
field stddev 1.1667415369807
field sum 206
field sqrsum 858
field min 2
field max 7
attr type  int
bin	-INF	0
bin	-1	0
bin	0	0
bin	1	0
bin	2	6
bin	3	15
bin	4	23
bin	5	5
bin	6	3
bin	7	2
bin	8	0
bin	9	0
bin	10	0
scalar scenarioOpp.VPA[14].netw 	"# L3Sent" 	633
scalar scenarioOpp.VPA[14].netw 	"# L3Received" 	526
scalar scenarioOpp.VPA[14].netw 	"# of Contacts" 	89
scalar scenarioOpp.VPA[14].netw 	"# of InterContacts" 	31
scalar scenarioOpp.VPA[14].netw 	"# Bundles at L3" 	268
statistic scenarioOpp.VPA[14].netw 	"Histogram for max nbr repeated contact"
field count 16
field mean 1.9375
field stddev 0.92870878105034
field sum 31
field sqrsum 73
field min 1
field max 4
attr type  int
bin	-INF	0
bin	-1	0
bin	0	0
bin	1	6
bin	2	6
bin	3	3
bin	4	1
bin	5	0
bin	6	0
scalar scenarioOpp.VPA[14].netw 	"Bars for #repeated 1" 	16
scalar scenarioOpp.VPA[14].netw 	"Bars for #repeated 2" 	10
scalar scenarioOpp.VPA[14].netw 	"Bars for #repeated 3" 	4
scalar scenarioOpp.VPA[14].netw 	"Bars for #repeated 4" 	1
scalar scenarioOpp.VPA[14].netw 	"Bars for #repeated 5" 	0
scalar scenarioOpp.VPA[14].netw 	"Contact CDF LQ1 #repeated 1" 	0
scalar scenarioOpp.VPA[14].netw 	"Contact CDF G1LQ5 #repeated 1" 	0
scalar scenarioOpp.VPA[14].netw 	"Contact CDF G5LQ20 #repeated 1" 	15
scalar scenarioOpp.VPA[14].netw 	"Contact CDF G20LQ50 #repeated 1" 	1
scalar scenarioOpp.VPA[14].netw 	"Contact CDF G50LQ100 #repeated 1" 	0
scalar scenarioOpp.VPA[14].netw 	"Contact CDF G100LQ500 #repeated 1" 	0
scalar scenarioOpp.VPA[14].netw 	"Contact CDF G500 #repeated 1" 	0
scalar scenarioOpp.VPA[14].netw 	"Contact CDF LQ1 #repeated 2" 	0
scalar scenarioOpp.VPA[14].netw 	"Contact CDF G1LQ5 #repeated 2" 	0
scalar scenarioOpp.VPA[14].netw 	"Contact CDF G5LQ20 #repeated 2" 	10
scalar scenarioOpp.VPA[14].netw 	"Contact CDF G20LQ50 #repeated 2" 	0
scalar scenarioOpp.VPA[14].netw 	"Contact CDF G50LQ100 #repeated 2" 	0
scalar scenarioOpp.VPA[14].netw 	"Contact CDF G100LQ500 #repeated 2" 	0
scalar scenarioOpp.VPA[14].netw 	"Contact CDF G500 #repeated 2" 	0
scalar scenarioOpp.VPA[14].netw 	"Contact CDF LQ1 #repeated 3" 	0
scalar scenarioOpp.VPA[14].netw 	"Contact CDF G1LQ5 #repeated 3" 	0
scalar scenarioOpp.VPA[14].netw 	"Contact CDF G5LQ20 #repeated 3" 	2
scalar scenarioOpp.VPA[14].netw 	"Contact CDF G20LQ50 #repeated 3" 	2
scalar scenarioOpp.VPA[14].netw 	"Contact CDF G50LQ100 #repeated 3" 	0
scalar scenarioOpp.VPA[14].netw 	"Contact CDF G100LQ500 #repeated 3" 	0
scalar scenarioOpp.VPA[14].netw 	"Contact CDF G500 #repeated 3" 	0
scalar scenarioOpp.VPA[14].netw 	"Contact CDF LQ1 #repeated 4" 	0
scalar scenarioOpp.VPA[14].netw 	"Contact CDF G1LQ5 #repeated 4" 	0
scalar scenarioOpp.VPA[14].netw 	"Contact CDF G5LQ20 #repeated 4" 	1
scalar scenarioOpp.VPA[14].netw 	"Contact CDF G20LQ50 #repeated 4" 	0
scalar scenarioOpp.VPA[14].netw 	"Contact CDF G50LQ100 #repeated 4" 	0
scalar scenarioOpp.VPA[14].netw 	"Contact CDF G100LQ500 #repeated 4" 	0
scalar scenarioOpp.VPA[14].netw 	"Contact CDF G500 #repeated 4" 	0
scalar scenarioOpp.VPA[14].netw 	"InterContact CDF LQ1 #repeated 1" 	0
scalar scenarioOpp.VPA[14].netw 	"InterContact CDF G1LQ5 #repeated 1" 	0
scalar scenarioOpp.VPA[14].netw 	"InterContact CDF G5LQ20 #repeated 1" 	0
scalar scenarioOpp.VPA[14].netw 	"InterContact CDF G20LQ50 #repeated 1" 	0
scalar scenarioOpp.VPA[14].netw 	"InterContact CDF G50LQ100 #repeated 1" 	0
scalar scenarioOpp.VPA[14].netw 	"InterContact CDF G100LQ500 #repeated 1" 	0
scalar scenarioOpp.VPA[14].netw 	"InterContact CDF G500 #repeated 1" 	15
scalar scenarioOpp.VPA[14].netw 	"InterContact CDF LQ1 #repeated 2" 	0
scalar scenarioOpp.VPA[14].netw 	"InterContact CDF G1LQ5 #repeated 2" 	0
scalar scenarioOpp.VPA[14].netw 	"InterContact CDF G5LQ20 #repeated 2" 	0
scalar scenarioOpp.VPA[14].netw 	"InterContact CDF G20LQ50 #repeated 2" 	0
scalar scenarioOpp.VPA[14].netw 	"InterContact CDF G50LQ100 #repeated 2" 	0
scalar scenarioOpp.VPA[14].netw 	"InterContact CDF G100LQ500 #repeated 2" 	0
scalar scenarioOpp.VPA[14].netw 	"InterContact CDF G500 #repeated 2" 	9
scalar scenarioOpp.VPA[14].netw 	"InterContact CDF LQ1 #repeated 3" 	0
scalar scenarioOpp.VPA[14].netw 	"InterContact CDF G1LQ5 #repeated 3" 	0
scalar scenarioOpp.VPA[14].netw 	"InterContact CDF G5LQ20 #repeated 3" 	0
scalar scenarioOpp.VPA[14].netw 	"InterContact CDF G20LQ50 #repeated 3" 	0
scalar scenarioOpp.VPA[14].netw 	"InterContact CDF G50LQ100 #repeated 3" 	0
scalar scenarioOpp.VPA[14].netw 	"InterContact CDF G100LQ500 #repeated 3" 	0
scalar scenarioOpp.VPA[14].netw 	"InterContact CDF G500 #repeated 3" 	4
scalar scenarioOpp.VPA[14].netw 	"InterContact CDF LQ1 #repeated 4" 	0
scalar scenarioOpp.VPA[14].netw 	"InterContact CDF G1LQ5 #repeated 4" 	0
scalar scenarioOpp.VPA[14].netw 	"InterContact CDF G5LQ20 #repeated 4" 	0
scalar scenarioOpp.VPA[14].netw 	"InterContact CDF G20LQ50 #repeated 4" 	0
scalar scenarioOpp.VPA[14].netw 	"InterContact CDF G50LQ100 #repeated 4" 	0
scalar scenarioOpp.VPA[14].netw 	"InterContact CDF G100LQ500 #repeated 4" 	0
scalar scenarioOpp.VPA[14].netw 	"InterContact CDF G500 #repeated 4" 	1
statistic scenarioOpp.VPA[14].netw 	"Histogram for total contact duration"
field count 16
field mean 38.5625
field stddev 18.586621532705
field sum 617
field sqrsum 28975
field min 18
field max 76
attr type  int
bin	-INF	0
bin	-11	0
bin	-10	0
bin	-9	0
bin	-8	0
bin	-7	0
bin	-6	0
bin	-5	0
bin	-4	0
bin	-3	0
bin	-2	0
bin	-1	0
bin	0	0
bin	1	0
bin	2	0
bin	3	0
bin	4	0
bin	5	0
bin	6	0
bin	7	0
bin	8	0
bin	9	0
bin	10	0
bin	11	0
bin	12	0
bin	13	0
bin	14	0
bin	15	0
bin	16	0
bin	17	0
bin	18	1
bin	19	0
bin	20	4
bin	21	1
bin	22	0
bin	23	0
bin	24	0
bin	25	0
bin	26	0
bin	27	0
bin	28	0
bin	29	0
bin	30	0
bin	31	0
bin	32	0
bin	33	0
bin	34	0
bin	35	0
bin	36	0
bin	37	0
bin	38	2
bin	39	0
bin	40	4
bin	41	0
bin	42	0
bin	43	0
bin	44	0
bin	45	0
bin	46	0
bin	47	0
bin	48	0
bin	49	0
bin	50	0
bin	51	0
bin	52	0
bin	53	0
bin	54	0
bin	55	0
bin	56	0
bin	57	0
bin	58	0
bin	59	0
bin	60	1
bin	61	1
bin	62	0
bin	63	0
bin	64	0
bin	65	1
bin	66	0
bin	67	0
bin	68	0
bin	69	0
bin	70	0
bin	71	0
bin	72	0
bin	73	0
bin	74	0
bin	75	0
bin	76	1
bin	77	0
bin	78	0
bin	79	0
bin	80	0
bin	81	0
bin	82	0
bin	83	0
bin	84	0
bin	85	0
bin	86	0
bin	87	0
bin	88	0
bin	89	0
bin	90	0
bin	91	0
bin	92	0
bin	93	0
bin	94	0
bin	95	0
bin	96	0
bin	97	0
bin	98	0
bin	99	0
bin	100	0
bin	101	0
bin	102	0
bin	103	0
bin	104	0
bin	105	0
statistic scenarioOpp.VPA[14].netw 	"Histogram for total interContact duration"
field count 16
field mean 1730.3125
field stddev 882.50595607055
field sum 27685
field sqrsum 59585953
field min 283
field max 3179
attr type  int
bin	-INF	0
bin	-1169	0
bin	-1140	0
bin	-1111	0
bin	-1082	0
bin	-1053	0
bin	-1024	0
bin	-995	0
bin	-966	0
bin	-937	0
bin	-908	0
bin	-879	0
bin	-850	0
bin	-821	0
bin	-792	0
bin	-763	0
bin	-734	0
bin	-705	0
bin	-676	0
bin	-647	0
bin	-618	0
bin	-589	0
bin	-560	0
bin	-531	0
bin	-502	0
bin	-473	0
bin	-444	0
bin	-415	0
bin	-386	0
bin	-357	0
bin	-328	0
bin	-299	0
bin	-270	0
bin	-241	0
bin	-212	0
bin	-183	0
bin	-154	0
bin	-125	0
bin	-96	0
bin	-67	0
bin	-38	0
bin	-9	0
bin	20	0
bin	49	0
bin	78	0
bin	107	0
bin	136	0
bin	165	0
bin	194	0
bin	223	0
bin	252	0
bin	281	1
bin	310	0
bin	339	0
bin	368	0
bin	397	0
bin	426	0
bin	455	0
bin	484	0
bin	513	0
bin	542	0
bin	571	0
bin	600	0
bin	629	0
bin	658	0
bin	687	0
bin	716	0
bin	745	0
bin	774	0
bin	803	0
bin	832	0
bin	861	4
bin	890	0
bin	919	0
bin	948	0
bin	977	0
bin	1006	0
bin	1035	0
bin	1064	0
bin	1093	0
bin	1122	1
bin	1151	0
bin	1180	0
bin	1209	0
bin	1238	0
bin	1267	0
bin	1296	0
bin	1325	0
bin	1354	0
bin	1383	0
bin	1412	0
bin	1441	1
bin	1470	0
bin	1499	0
bin	1528	0
bin	1557	0
bin	1586	0
bin	1615	0
bin	1644	0
bin	1673	0
bin	1702	1
bin	1731	2
bin	1760	0
bin	1789	0
bin	1818	0
bin	1847	0
bin	1876	0
bin	1905	0
bin	1934	0
bin	1963	0
bin	1992	0
bin	2021	0
bin	2050	0
bin	2079	0
bin	2108	0
bin	2137	0
bin	2166	0
bin	2195	0
bin	2224	0
bin	2253	0
bin	2282	1
bin	2311	1
bin	2340	0
bin	2369	0
bin	2398	0
bin	2427	0
bin	2456	0
bin	2485	0
bin	2514	0
bin	2543	0
bin	2572	0
bin	2601	1
bin	2630	0
bin	2659	0
bin	2688	0
bin	2717	0
bin	2746	0
bin	2775	0
bin	2804	0
bin	2833	1
bin	2862	1
bin	2891	0
bin	2920	0
bin	2949	0
bin	2978	0
bin	3007	0
bin	3036	0
bin	3065	0
bin	3094	0
bin	3123	0
bin	3152	1
bin	3181	0
bin	3210	0
bin	3239	0
bin	3268	0
bin	3297	0
bin	3326	0
bin	3355	0
bin	3384	0
bin	3413	0
bin	3442	0
bin	3471	0
bin	3500	0
bin	3529	0
bin	3558	0
bin	3587	0
bin	3616	0
bin	3645	0
bin	3674	0
bin	3703	0
bin	3732	0
bin	3761	0
bin	3790	0
bin	3819	0
bin	3848	0
bin	3877	0
bin	3906	0
bin	3935	0
bin	3964	0
bin	3993	0
bin	4022	0
bin	4051	0
bin	4080	0
bin	4109	0
bin	4138	0
bin	4167	0
bin	4196	0
bin	4225	0
bin	4254	0
bin	4283	0
bin	4312	0
bin	4341	0
bin	4370	0
bin	4399	0
bin	4428	0
bin	4457	0
bin	4486	0
bin	4515	0
bin	4544	0
bin	4573	0
bin	4602	0
bin	4631	0
