version 2
run General-0-20160126-12:20:11-131121
attr configname General
attr datetime 20160126-12:20:11
attr experiment General
attr inifile prophet.omnetpp.ini
attr iterationvars ""
attr iterationvars2 $repetition=0
attr measurement ""
attr network org.mixim.examples.veins.scenarioOpp
attr processid 131121
attr repetition 0
attr replication #0
attr resultdir results
attr runnumber 0
attr seedset 0

scalar scenarioOpp.node[0].appl 	"# Bundle Sent" 	0
scalar scenarioOpp.node[0].appl 	"# Bundle Received" 	0
scalar scenarioOpp.node[0].netw 	"# L3Sent" 	1168
scalar scenarioOpp.node[0].netw 	"# L3Received" 	1195
scalar scenarioOpp.node[0].netw 	"# of Contacts" 	224
scalar scenarioOpp.node[0].netw 	"# of InterContacts" 	84
scalar scenarioOpp.node[0].netw 	"# Bundles at L3" 	619
statistic scenarioOpp.node[0].netw 	"Histogram for max nbr repeated contact"
field count 51
field mean 1.6470588235294
field stddev 2.4316540001552
field sum 84
field sqrsum 434
field min 1
field max 18
attr type  int
bin	-INF	0
bin	-8	0
bin	-7	0
bin	-6	0
bin	-5	0
bin	-4	0
bin	-3	0
bin	-2	0
bin	-1	0
bin	0	0
bin	1	39
bin	2	7
bin	3	3
bin	4	1
bin	5	0
bin	6	0
bin	7	0
bin	8	0
bin	9	0
bin	10	0
bin	11	0
bin	12	0
bin	13	0
bin	14	0
bin	15	0
bin	16	0
bin	17	0
bin	18	1
bin	19	0
bin	20	0
bin	21	0
bin	22	0
bin	23	0
bin	24	0
bin	25	0
bin	26	0
bin	27	0
scalar scenarioOpp.node[0].netw 	"Bars for #repeated 1" 	51
scalar scenarioOpp.node[0].netw 	"Bars for #repeated 2" 	12
scalar scenarioOpp.node[0].netw 	"Bars for #repeated 3" 	5
scalar scenarioOpp.node[0].netw 	"Bars for #repeated 4" 	2
scalar scenarioOpp.node[0].netw 	"Bars for #repeated 5" 	14
scalar scenarioOpp.node[0].netw 	"Contact CDF LQ1 #repeated 1" 	1
scalar scenarioOpp.node[0].netw 	"Contact CDF G1LQ5 #repeated 1" 	0
scalar scenarioOpp.node[0].netw 	"Contact CDF G5LQ20 #repeated 1" 	47
scalar scenarioOpp.node[0].netw 	"Contact CDF G20LQ50 #repeated 1" 	1
scalar scenarioOpp.node[0].netw 	"Contact CDF G50LQ100 #repeated 1" 	0
scalar scenarioOpp.node[0].netw 	"Contact CDF G100LQ500 #repeated 1" 	0
scalar scenarioOpp.node[0].netw 	"Contact CDF G500 #repeated 1" 	0
scalar scenarioOpp.node[0].netw 	"Contact CDF LQ1 #repeated 2" 	1
scalar scenarioOpp.node[0].netw 	"Contact CDF G1LQ5 #repeated 2" 	1
scalar scenarioOpp.node[0].netw 	"Contact CDF G5LQ20 #repeated 2" 	7
scalar scenarioOpp.node[0].netw 	"Contact CDF G20LQ50 #repeated 2" 	2
scalar scenarioOpp.node[0].netw 	"Contact CDF G50LQ100 #repeated 2" 	0
scalar scenarioOpp.node[0].netw 	"Contact CDF G100LQ500 #repeated 2" 	0
scalar scenarioOpp.node[0].netw 	"Contact CDF G500 #repeated 2" 	0
scalar scenarioOpp.node[0].netw 	"Contact CDF LQ1 #repeated 3" 	0
scalar scenarioOpp.node[0].netw 	"Contact CDF G1LQ5 #repeated 3" 	0
scalar scenarioOpp.node[0].netw 	"Contact CDF G5LQ20 #repeated 3" 	5
scalar scenarioOpp.node[0].netw 	"Contact CDF G20LQ50 #repeated 3" 	0
scalar scenarioOpp.node[0].netw 	"Contact CDF G50LQ100 #repeated 3" 	0
scalar scenarioOpp.node[0].netw 	"Contact CDF G100LQ500 #repeated 3" 	0
scalar scenarioOpp.node[0].netw 	"Contact CDF G500 #repeated 3" 	0
scalar scenarioOpp.node[0].netw 	"Contact CDF LQ1 #repeated 4" 	1
scalar scenarioOpp.node[0].netw 	"Contact CDF G1LQ5 #repeated 4" 	0
scalar scenarioOpp.node[0].netw 	"Contact CDF G5LQ20 #repeated 4" 	1
scalar scenarioOpp.node[0].netw 	"Contact CDF G20LQ50 #repeated 4" 	0
scalar scenarioOpp.node[0].netw 	"Contact CDF G50LQ100 #repeated 4" 	0
scalar scenarioOpp.node[0].netw 	"Contact CDF G100LQ500 #repeated 4" 	0
scalar scenarioOpp.node[0].netw 	"Contact CDF G500 #repeated 4" 	0
scalar scenarioOpp.node[0].netw 	"Contact CDF LQ1 #repeated 5" 	8
scalar scenarioOpp.node[0].netw 	"Contact CDF G1LQ5 #repeated 5" 	0
scalar scenarioOpp.node[0].netw 	"Contact CDF G5LQ20 #repeated 5" 	6
scalar scenarioOpp.node[0].netw 	"Contact CDF G20LQ50 #repeated 5" 	0
scalar scenarioOpp.node[0].netw 	"Contact CDF G50LQ100 #repeated 5" 	0
scalar scenarioOpp.node[0].netw 	"Contact CDF G100LQ500 #repeated 5" 	0
scalar scenarioOpp.node[0].netw 	"Contact CDF G500 #repeated 5" 	0
scalar scenarioOpp.node[0].netw 	"InterContact CDF LQ1 #repeated 1" 	2
scalar scenarioOpp.node[0].netw 	"InterContact CDF G1LQ5 #repeated 1" 	0
scalar scenarioOpp.node[0].netw 	"InterContact CDF G5LQ20 #repeated 1" 	0
scalar scenarioOpp.node[0].netw 	"InterContact CDF G20LQ50 #repeated 1" 	0
scalar scenarioOpp.node[0].netw 	"InterContact CDF G50LQ100 #repeated 1" 	0
scalar scenarioOpp.node[0].netw 	"InterContact CDF G100LQ500 #repeated 1" 	0
scalar scenarioOpp.node[0].netw 	"InterContact CDF G500 #repeated 1" 	35
scalar scenarioOpp.node[0].netw 	"InterContact CDF LQ1 #repeated 2" 	0
scalar scenarioOpp.node[0].netw 	"InterContact CDF G1LQ5 #repeated 2" 	0
scalar scenarioOpp.node[0].netw 	"InterContact CDF G5LQ20 #repeated 2" 	0
scalar scenarioOpp.node[0].netw 	"InterContact CDF G20LQ50 #repeated 2" 	0
scalar scenarioOpp.node[0].netw 	"InterContact CDF G50LQ100 #repeated 2" 	0
scalar scenarioOpp.node[0].netw 	"InterContact CDF G100LQ500 #repeated 2" 	0
scalar scenarioOpp.node[0].netw 	"InterContact CDF G500 #repeated 2" 	9
scalar scenarioOpp.node[0].netw 	"InterContact CDF LQ1 #repeated 3" 	1
scalar scenarioOpp.node[0].netw 	"InterContact CDF G1LQ5 #repeated 3" 	0
scalar scenarioOpp.node[0].netw 	"InterContact CDF G5LQ20 #repeated 3" 	0
scalar scenarioOpp.node[0].netw 	"InterContact CDF G20LQ50 #repeated 3" 	0
scalar scenarioOpp.node[0].netw 	"InterContact CDF G50LQ100 #repeated 3" 	0
scalar scenarioOpp.node[0].netw 	"InterContact CDF G100LQ500 #repeated 3" 	0
scalar scenarioOpp.node[0].netw 	"InterContact CDF G500 #repeated 3" 	2
scalar scenarioOpp.node[0].netw 	"InterContact CDF LQ1 #repeated 4" 	1
scalar scenarioOpp.node[0].netw 	"InterContact CDF G1LQ5 #repeated 4" 	0
scalar scenarioOpp.node[0].netw 	"InterContact CDF G5LQ20 #repeated 4" 	0
scalar scenarioOpp.node[0].netw 	"InterContact CDF G20LQ50 #repeated 4" 	0
scalar scenarioOpp.node[0].netw 	"InterContact CDF G50LQ100 #repeated 4" 	0
scalar scenarioOpp.node[0].netw 	"InterContact CDF G100LQ500 #repeated 4" 	0
scalar scenarioOpp.node[0].netw 	"InterContact CDF G500 #repeated 4" 	1
scalar scenarioOpp.node[0].netw 	"InterContact CDF LQ1 #repeated 5" 	8
scalar scenarioOpp.node[0].netw 	"InterContact CDF G1LQ5 #repeated 5" 	0
scalar scenarioOpp.node[0].netw 	"InterContact CDF G5LQ20 #repeated 5" 	0
scalar scenarioOpp.node[0].netw 	"InterContact CDF G20LQ50 #repeated 5" 	0
scalar scenarioOpp.node[0].netw 	"InterContact CDF G50LQ100 #repeated 5" 	6
scalar scenarioOpp.node[0].netw 	"InterContact CDF G100LQ500 #repeated 5" 	0
scalar scenarioOpp.node[0].netw 	"InterContact CDF G500 #repeated 5" 	0
statistic scenarioOpp.node[0].netw 	"Histogram for total contact duration"
field count 51
field mean 22.647058823529
field stddev 32.007388852833
field sum 1155
field sqrsum 77381
field min 0
field max 160
attr type  int
bin	-INF	0
bin	-80	0
bin	-78	0
bin	-76	0
bin	-74	0
bin	-72	0
bin	-70	0
bin	-68	0
bin	-66	0
bin	-64	0
bin	-62	0
bin	-60	0
bin	-58	0
bin	-56	0
bin	-54	0
bin	-52	0
bin	-50	0
bin	-48	0
bin	-46	0
bin	-44	0
bin	-42	0
bin	-40	0
bin	-38	0
bin	-36	0
bin	-34	0
bin	-32	0
bin	-30	0
bin	-28	0
bin	-26	0
bin	-24	0
bin	-22	0
bin	-20	0
bin	-18	0
bin	-16	0
bin	-14	0
bin	-12	0
bin	-10	0
bin	-8	0
bin	-6	0
bin	-4	0
bin	-2	0
bin	0	1
bin	2	0
bin	4	0
bin	6	1
bin	8	17
bin	10	12
bin	12	0
bin	14	1
bin	16	0
bin	18	5
bin	20	6
bin	22	1
bin	24	0
bin	26	0
bin	28	0
bin	30	0
bin	32	0
bin	34	0
bin	36	0
bin	38	1
bin	40	0
bin	42	0
bin	44	0
bin	46	0
bin	48	0
bin	50	0
bin	52	0
bin	54	0
bin	56	0
bin	58	1
bin	60	1
bin	62	1
bin	64	0
bin	66	0
bin	68	0
bin	70	0
bin	72	0
bin	74	0
bin	76	0
bin	78	0
bin	80	0
bin	82	0
bin	84	1
bin	86	0
bin	88	0
bin	90	0
bin	92	0
bin	94	0
bin	96	0
bin	98	0
bin	100	0
bin	102	0
bin	104	0
bin	106	0
bin	108	0
bin	110	0
bin	112	0
bin	114	0
bin	116	0
bin	118	0
bin	120	0
bin	122	0
bin	124	0
bin	126	0
bin	128	0
bin	130	0
bin	132	0
bin	134	0
bin	136	0
bin	138	0
bin	140	0
bin	142	0
bin	144	0
bin	146	0
bin	148	0
bin	150	0
bin	152	0
bin	154	0
bin	156	1
bin	158	0
bin	160	1
bin	162	0
bin	164	0
bin	166	0
bin	168	0
bin	170	0
bin	172	0
bin	174	0
bin	176	0
bin	178	0
bin	180	0
bin	182	0
bin	184	0
bin	186	0
bin	188	0
bin	190	0
bin	192	0
bin	194	0
bin	196	0
bin	198	0
bin	200	0
bin	202	0
bin	204	0
bin	206	0
bin	208	0
bin	210	0
bin	212	0
bin	214	0
bin	216	0
bin	218	0
bin	220	0
bin	222	0
bin	224	0
bin	226	0
bin	228	0
bin	230	0
bin	232	0
bin	234	0
bin	236	0
bin	238	0
bin	240	0
statistic scenarioOpp.node[0].netw 	"Histogram for total interContact duration"
field count 51
field mean 1420.7647058824
field stddev 841.00213051419
field sum 72459
field sqrsum 138311419
field min 0
field max 3492
attr type  int
bin	-INF	0
bin	-1754	0
bin	-1719	0
bin	-1684	0
bin	-1649	0
bin	-1614	0
bin	-1579	0
bin	-1544	0
bin	-1509	0
bin	-1474	0
bin	-1439	0
bin	-1404	0
bin	-1369	0
bin	-1334	0
bin	-1299	0
bin	-1264	0
bin	-1229	0
bin	-1194	0
bin	-1159	0
bin	-1124	0
bin	-1089	0
bin	-1054	0
bin	-1019	0
bin	-984	0
bin	-949	0
bin	-914	0
bin	-879	0
bin	-844	0
bin	-809	0
bin	-774	0
bin	-739	0
bin	-704	0
bin	-669	0
bin	-634	0
bin	-599	0
bin	-564	0
bin	-529	0
bin	-494	0
bin	-459	0
bin	-424	0
bin	-389	0
bin	-354	0
bin	-319	0
bin	-284	0
bin	-249	0
bin	-214	0
bin	-179	0
bin	-144	0
bin	-109	0
bin	-74	0
bin	-39	0
bin	-4	2
bin	31	0
bin	66	0
bin	101	0
bin	136	0
bin	171	0
bin	206	0
bin	241	0
bin	276	0
bin	311	0
bin	346	0
bin	381	0
bin	416	9
bin	451	0
bin	486	0
bin	521	0
bin	556	1
bin	591	0
bin	626	0
bin	661	0
bin	696	3
bin	731	2
bin	766	0
bin	801	0
bin	836	0
bin	871	3
bin	906	0
bin	941	0
bin	976	1
bin	1011	0
bin	1046	0
bin	1081	0
bin	1116	0
bin	1151	0
bin	1186	0
bin	1221	0
bin	1256	0
bin	1291	3
bin	1326	0
bin	1361	0
bin	1396	0
bin	1431	0
bin	1466	1
bin	1501	0
bin	1536	0
bin	1571	1
bin	1606	1
bin	1641	0
bin	1676	0
bin	1711	5
bin	1746	2
bin	1781	0
bin	1816	0
bin	1851	0
bin	1886	2
bin	1921	0
bin	1956	0
bin	1991	1
bin	2026	2
bin	2061	0
bin	2096	0
bin	2131	0
bin	2166	3
bin	2201	1
bin	2236	0
bin	2271	2
bin	2306	2
bin	2341	0
bin	2376	0
bin	2411	0
bin	2446	0
bin	2481	1
bin	2516	0
bin	2551	0
bin	2586	0
bin	2621	0
bin	2656	0
bin	2691	0
bin	2726	0
bin	2761	1
bin	2796	0
bin	2831	0
bin	2866	0
bin	2901	0
bin	2936	0
bin	2971	0
bin	3006	0
bin	3041	0
bin	3076	0
bin	3111	0
bin	3146	0
bin	3181	1
bin	3216	0
bin	3251	0
bin	3286	0
bin	3321	0
bin	3356	0
bin	3391	0
bin	3426	0
bin	3461	1
bin	3496	0
bin	3531	0
bin	3566	0
bin	3601	0
bin	3636	0
bin	3671	0
bin	3706	0
bin	3741	0
bin	3776	0
bin	3811	0
bin	3846	0
bin	3881	0
bin	3916	0
bin	3951	0
bin	3986	0
bin	4021	0
bin	4056	0
bin	4091	0
bin	4126	0
bin	4161	0
bin	4196	0
bin	4231	0
bin	4266	0
bin	4301	0
bin	4336	0
bin	4371	0
bin	4406	0
bin	4441	0
bin	4476	0
bin	4511	0
bin	4546	0
bin	4581	0
bin	4616	0
bin	4651	0
bin	4686	0
bin	4721	0
bin	4756	0
bin	4791	0
bin	4826	0
bin	4861	0
bin	4896	0
bin	4931	0
bin	4966	0
bin	5001	0
bin	5036	0
bin	5071	0
bin	5106	0
bin	5141	0
bin	5176	0
bin	5211	0
bin	5246	0
scalar scenarioOpp.node[0].mobility 	Community 	0
scalar scenarioOpp.node[14].appl 	"# Bundle Sent" 	0
scalar scenarioOpp.node[14].appl 	"# Bundle Received" 	0
scalar scenarioOpp.node[14].netw 	"# L3Sent" 	1585
scalar scenarioOpp.node[14].netw 	"# L3Received" 	1235
scalar scenarioOpp.node[14].netw 	"# of Contacts" 	548
scalar scenarioOpp.node[14].netw 	"# of InterContacts" 	422
scalar scenarioOpp.node[14].netw 	"# Bundles at L3" 	662
statistic scenarioOpp.node[14].netw 	"Histogram for max nbr repeated contact"
field count 59
field mean 7.1525423728814
field stddev 42.102835337123
field sum 422
field sqrsum 105832
field min 1
field max 325
attr type  int
bin	-INF	0
bin	-161	0
bin	-157	0
bin	-153	0
bin	-149	0
bin	-145	0
bin	-141	0
bin	-137	0
bin	-133	0
bin	-129	0
bin	-125	0
bin	-121	0
bin	-117	0
bin	-113	0
bin	-109	0
bin	-105	0
bin	-101	0
bin	-97	0
bin	-93	0
bin	-89	0
bin	-85	0
bin	-81	0
bin	-77	0
bin	-73	0
bin	-69	0
bin	-65	0
bin	-61	0
bin	-57	0
bin	-53	0
bin	-49	0
bin	-45	0
bin	-41	0
bin	-37	0
bin	-33	0
bin	-29	0
bin	-25	0
bin	-21	0
bin	-17	0
bin	-13	0
bin	-9	0
bin	-5	0
bin	-1	51
bin	3	7
bin	7	0
bin	11	0
bin	15	0
bin	19	0
bin	23	0
bin	27	0
bin	31	0
bin	35	0
bin	39	0
bin	43	0
bin	47	0
bin	51	0
bin	55	0
bin	59	0
bin	63	0
bin	67	0
bin	71	0
bin	75	0
bin	79	0
bin	83	0
bin	87	0
bin	91	0
bin	95	0
bin	99	0
bin	103	0
bin	107	0
bin	111	0
bin	115	0
bin	119	0
bin	123	0
bin	127	0
bin	131	0
bin	135	0
bin	139	0
bin	143	0
bin	147	0
bin	151	0
bin	155	0
bin	159	0
bin	163	0
bin	167	0
bin	171	0
bin	175	0
bin	179	0
bin	183	0
bin	187	0
bin	191	0
bin	195	0
bin	199	0
bin	203	0
bin	207	0
bin	211	0
bin	215	0
bin	219	0
bin	223	0
bin	227	0
bin	231	0
bin	235	0
bin	239	0
bin	243	0
bin	247	0
bin	251	0
bin	255	0
bin	259	0
bin	263	0
bin	267	0
bin	271	0
bin	275	0
bin	279	0
bin	283	0
bin	287	0
bin	291	0
bin	295	0
bin	299	0
bin	303	0
bin	307	0
bin	311	0
bin	315	0
bin	319	0
bin	323	1
bin	327	0
bin	331	0
bin	335	0
bin	339	0
bin	343	0
bin	347	0
bin	351	0
bin	355	0
bin	359	0
bin	363	0
bin	367	0
bin	371	0
bin	375	0
bin	379	0
bin	383	0
bin	387	0
bin	391	0
bin	395	0
bin	399	0
bin	403	0
bin	407	0
bin	411	0
bin	415	0
bin	419	0
bin	423	0
bin	427	0
bin	431	0
bin	435	0
bin	439	0
bin	443	0
bin	447	0
bin	451	0
bin	455	0
bin	459	0
bin	463	0
bin	467	0
bin	471	0
bin	475	0
bin	479	0
bin	483	0
bin	487	0
scalar scenarioOpp.node[14].netw 	"Bars for #repeated 1" 	59
scalar scenarioOpp.node[14].netw 	"Bars for #repeated 2" 	29
scalar scenarioOpp.node[14].netw 	"Bars for #repeated 3" 	8
scalar scenarioOpp.node[14].netw 	"Bars for #repeated 4" 	4
scalar scenarioOpp.node[14].netw 	"Bars for #repeated 5" 	322
scalar scenarioOpp.node[14].netw 	"Contact CDF LQ1 #repeated 1" 	4
scalar scenarioOpp.node[14].netw 	"Contact CDF G1LQ5 #repeated 1" 	0
scalar scenarioOpp.node[14].netw 	"Contact CDF G5LQ20 #repeated 1" 	50
scalar scenarioOpp.node[14].netw 	"Contact CDF G20LQ50 #repeated 1" 	2
scalar scenarioOpp.node[14].netw 	"Contact CDF G50LQ100 #repeated 1" 	0
scalar scenarioOpp.node[14].netw 	"Contact CDF G100LQ500 #repeated 1" 	0
scalar scenarioOpp.node[14].netw 	"Contact CDF G500 #repeated 1" 	0
scalar scenarioOpp.node[14].netw 	"Contact CDF LQ1 #repeated 2" 	2
scalar scenarioOpp.node[14].netw 	"Contact CDF G1LQ5 #repeated 2" 	0
scalar scenarioOpp.node[14].netw 	"Contact CDF G5LQ20 #repeated 2" 	25
scalar scenarioOpp.node[14].netw 	"Contact CDF G20LQ50 #repeated 2" 	2
scalar scenarioOpp.node[14].netw 	"Contact CDF G50LQ100 #repeated 2" 	0
scalar scenarioOpp.node[14].netw 	"Contact CDF G100LQ500 #repeated 2" 	0
scalar scenarioOpp.node[14].netw 	"Contact CDF G500 #repeated 2" 	0
scalar scenarioOpp.node[14].netw 	"Contact CDF LQ1 #repeated 3" 	2
scalar scenarioOpp.node[14].netw 	"Contact CDF G1LQ5 #repeated 3" 	0
scalar scenarioOpp.node[14].netw 	"Contact CDF G5LQ20 #repeated 3" 	6
scalar scenarioOpp.node[14].netw 	"Contact CDF G20LQ50 #repeated 3" 	0
scalar scenarioOpp.node[14].netw 	"Contact CDF G50LQ100 #repeated 3" 	0
scalar scenarioOpp.node[14].netw 	"Contact CDF G100LQ500 #repeated 3" 	0
scalar scenarioOpp.node[14].netw 	"Contact CDF G500 #repeated 3" 	0
scalar scenarioOpp.node[14].netw 	"Contact CDF LQ1 #repeated 4" 	1
scalar scenarioOpp.node[14].netw 	"Contact CDF G1LQ5 #repeated 4" 	0
scalar scenarioOpp.node[14].netw 	"Contact CDF G5LQ20 #repeated 4" 	2
scalar scenarioOpp.node[14].netw 	"Contact CDF G20LQ50 #repeated 4" 	0
scalar scenarioOpp.node[14].netw 	"Contact CDF G50LQ100 #repeated 4" 	0
scalar scenarioOpp.node[14].netw 	"Contact CDF G100LQ500 #repeated 4" 	0
scalar scenarioOpp.node[14].netw 	"Contact CDF G500 #repeated 4" 	0
scalar scenarioOpp.node[14].netw 	"Contact CDF LQ1 #repeated 5" 	316
scalar scenarioOpp.node[14].netw 	"Contact CDF G1LQ5 #repeated 5" 	0
scalar scenarioOpp.node[14].netw 	"Contact CDF G5LQ20 #repeated 5" 	5
scalar scenarioOpp.node[14].netw 	"Contact CDF G20LQ50 #repeated 5" 	0
scalar scenarioOpp.node[14].netw 	"Contact CDF G50LQ100 #repeated 5" 	1
scalar scenarioOpp.node[14].netw 	"Contact CDF G100LQ500 #repeated 5" 	0
scalar scenarioOpp.node[14].netw 	"Contact CDF G500 #repeated 5" 	0
scalar scenarioOpp.node[14].netw 	"InterContact CDF LQ1 #repeated 1" 	5
scalar scenarioOpp.node[14].netw 	"InterContact CDF G1LQ5 #repeated 1" 	0
scalar scenarioOpp.node[14].netw 	"InterContact CDF G5LQ20 #repeated 1" 	0
scalar scenarioOpp.node[14].netw 	"InterContact CDF G20LQ50 #repeated 1" 	0
scalar scenarioOpp.node[14].netw 	"InterContact CDF G50LQ100 #repeated 1" 	0
scalar scenarioOpp.node[14].netw 	"InterContact CDF G100LQ500 #repeated 1" 	0
scalar scenarioOpp.node[14].netw 	"InterContact CDF G500 #repeated 1" 	36
scalar scenarioOpp.node[14].netw 	"InterContact CDF LQ1 #repeated 2" 	2
scalar scenarioOpp.node[14].netw 	"InterContact CDF G1LQ5 #repeated 2" 	0
scalar scenarioOpp.node[14].netw 	"InterContact CDF G5LQ20 #repeated 2" 	0
scalar scenarioOpp.node[14].netw 	"InterContact CDF G20LQ50 #repeated 2" 	0
scalar scenarioOpp.node[14].netw 	"InterContact CDF G50LQ100 #repeated 2" 	0
scalar scenarioOpp.node[14].netw 	"InterContact CDF G100LQ500 #repeated 2" 	0
scalar scenarioOpp.node[14].netw 	"InterContact CDF G500 #repeated 2" 	19
scalar scenarioOpp.node[14].netw 	"InterContact CDF LQ1 #repeated 3" 	2
scalar scenarioOpp.node[14].netw 	"InterContact CDF G1LQ5 #repeated 3" 	0
scalar scenarioOpp.node[14].netw 	"InterContact CDF G5LQ20 #repeated 3" 	0
scalar scenarioOpp.node[14].netw 	"InterContact CDF G20LQ50 #repeated 3" 	0
scalar scenarioOpp.node[14].netw 	"InterContact CDF G50LQ100 #repeated 3" 	0
scalar scenarioOpp.node[14].netw 	"InterContact CDF G100LQ500 #repeated 3" 	0
scalar scenarioOpp.node[14].netw 	"InterContact CDF G500 #repeated 3" 	2
scalar scenarioOpp.node[14].netw 	"InterContact CDF LQ1 #repeated 4" 	1
scalar scenarioOpp.node[14].netw 	"InterContact CDF G1LQ5 #repeated 4" 	0
scalar scenarioOpp.node[14].netw 	"InterContact CDF G5LQ20 #repeated 4" 	0
scalar scenarioOpp.node[14].netw 	"InterContact CDF G20LQ50 #repeated 4" 	0
scalar scenarioOpp.node[14].netw 	"InterContact CDF G50LQ100 #repeated 4" 	0
scalar scenarioOpp.node[14].netw 	"InterContact CDF G100LQ500 #repeated 4" 	0
scalar scenarioOpp.node[14].netw 	"InterContact CDF G500 #repeated 4" 	2
scalar scenarioOpp.node[14].netw 	"InterContact CDF LQ1 #repeated 5" 	320
scalar scenarioOpp.node[14].netw 	"InterContact CDF G1LQ5 #repeated 5" 	0
scalar scenarioOpp.node[14].netw 	"InterContact CDF G5LQ20 #repeated 5" 	0
scalar scenarioOpp.node[14].netw 	"InterContact CDF G20LQ50 #repeated 5" 	0
scalar scenarioOpp.node[14].netw 	"InterContact CDF G50LQ100 #repeated 5" 	0
scalar scenarioOpp.node[14].netw 	"InterContact CDF G100LQ500 #repeated 5" 	0
scalar scenarioOpp.node[14].netw 	"InterContact CDF G500 #repeated 5" 	1
statistic scenarioOpp.node[14].netw 	"Histogram for total contact duration"
field count 58
field mean 33.810344827586
field stddev 67.951080674197
field sum 1961
field sqrsum 329491
field min 0
field max 450
attr type  int
bin	-INF	0
bin	-225	0
bin	-220	0
bin	-215	0
bin	-210	0
bin	-205	0
bin	-200	0
bin	-195	0
bin	-190	0
bin	-185	0
bin	-180	0
bin	-175	0
bin	-170	0
bin	-165	0
bin	-160	0
bin	-155	0
bin	-150	0
bin	-145	0
bin	-140	0
bin	-135	0
bin	-130	0
bin	-125	0
bin	-120	0
bin	-115	0
bin	-110	0
bin	-105	0
bin	-100	0
bin	-95	0
bin	-90	0
bin	-85	0
bin	-80	0
bin	-75	0
bin	-70	0
bin	-65	0
bin	-60	0
bin	-55	0
bin	-50	0
bin	-45	0
bin	-40	0
bin	-35	0
bin	-30	0
bin	-25	0
bin	-20	0
bin	-15	0
bin	-10	0
bin	-5	0
bin	0	2
bin	5	16
bin	10	9
bin	15	15
bin	20	3
bin	25	3
bin	30	0
bin	35	1
bin	40	3
bin	45	0
bin	50	0
bin	55	0
bin	60	1
bin	65	0
bin	70	0
bin	75	0
bin	80	0
bin	85	0
bin	90	0
bin	95	1
bin	100	0
bin	105	0
bin	110	0
bin	115	0
bin	120	0
bin	125	0
bin	130	0
bin	135	0
bin	140	0
bin	145	0
bin	150	0
bin	155	0
bin	160	0
bin	165	0
bin	170	0
bin	175	2
bin	180	0
bin	185	1
bin	190	0
bin	195	0
bin	200	0
bin	205	0
bin	210	0
bin	215	0
bin	220	0
bin	225	0
bin	230	0
bin	235	0
bin	240	0
bin	245	0
bin	250	0
bin	255	0
bin	260	0
bin	265	0
bin	270	0
bin	275	0
bin	280	0
bin	285	0
bin	290	0
bin	295	0
bin	300	0
bin	305	0
bin	310	0
bin	315	0
bin	320	0
bin	325	0
bin	330	0
bin	335	0
bin	340	0
bin	345	0
bin	350	0
bin	355	0
bin	360	0
bin	365	0
bin	370	0
bin	375	0
bin	380	0
bin	385	0
bin	390	0
bin	395	0
bin	400	0
bin	405	0
bin	410	0
bin	415	0
bin	420	0
bin	425	0
bin	430	0
bin	435	0
bin	440	0
bin	445	0
bin	450	1
bin	455	0
bin	460	0
bin	465	0
bin	470	0
bin	475	0
bin	480	0
bin	485	0
bin	490	0
bin	495	0
bin	500	0
bin	505	0
bin	510	0
bin	515	0
bin	520	0
bin	525	0
bin	530	0
bin	535	0
bin	540	0
bin	545	0
bin	550	0
bin	555	0
bin	560	0
bin	565	0
bin	570	0
bin	575	0
bin	580	0
bin	585	0
bin	590	0
bin	595	0
bin	600	0
bin	605	0
bin	610	0
bin	615	0
bin	620	0
bin	625	0
bin	630	0
bin	635	0
bin	640	0
bin	645	0
bin	650	0
bin	655	0
bin	660	0
bin	665	0
bin	670	0
bin	675	0
statistic scenarioOpp.node[14].netw 	"Histogram for total interContact duration"
field count 59
field mean 1292.7457627119
field stddev 823.12942781718
field sum 76272
field sqrsum 137897744
field min 1
field max 3172
attr type  int
bin	-INF	0
bin	-1597	0
bin	-1565	0
bin	-1533	0
bin	-1501	0
bin	-1469	0
bin	-1437	0
bin	-1405	0
bin	-1373	0
bin	-1341	0
bin	-1309	0
bin	-1277	0
bin	-1245	0
bin	-1213	0
bin	-1181	0
bin	-1149	0
bin	-1117	0
bin	-1085	0
bin	-1053	0
bin	-1021	0
bin	-989	0
bin	-957	0
bin	-925	0
bin	-893	0
bin	-861	0
bin	-829	0
bin	-797	0
bin	-765	0
bin	-733	0
bin	-701	0
bin	-669	0
bin	-637	0
bin	-605	0
bin	-573	0
bin	-541	0
bin	-509	0
bin	-477	0
bin	-445	0
bin	-413	0
bin	-381	0
bin	-349	0
bin	-317	0
bin	-285	0
bin	-253	0
bin	-221	0
bin	-189	0
bin	-157	0
bin	-125	0
bin	-93	0
bin	-61	0
bin	-29	2
bin	3	1
bin	35	0
bin	67	0
bin	99	0
bin	131	2
bin	163	0
bin	195	0
bin	227	0
bin	259	4
bin	291	0
bin	323	0
bin	355	0
bin	387	0
bin	419	3
bin	451	0
bin	483	0
bin	515	0
bin	547	3
bin	579	1
bin	611	0
bin	643	0
bin	675	0
bin	707	2
bin	739	0
bin	771	0
bin	803	0
bin	835	2
bin	867	1
bin	899	0
bin	931	0
bin	963	0
bin	995	6
bin	1027	1
bin	1059	0
bin	1091	0
bin	1123	3
bin	1155	0
bin	1187	0
bin	1219	0
bin	1251	0
bin	1283	3
bin	1315	1
bin	1347	0
bin	1379	0
bin	1411	0
bin	1443	2
bin	1475	0
bin	1507	0
bin	1539	0
bin	1571	2
bin	1603	0
bin	1635	0
bin	1667	0
bin	1699	0
bin	1731	2
bin	1763	0
bin	1795	0
bin	1827	0
bin	1859	0
bin	1891	1
bin	1923	0
bin	1955	0
bin	1987	0
bin	2019	4
bin	2051	0
bin	2083	0
bin	2115	0
bin	2147	1
bin	2179	2
bin	2211	0
bin	2243	0
bin	2275	0
bin	2307	4
bin	2339	0
bin	2371	0
bin	2403	0
bin	2435	1
bin	2467	3
bin	2499	0
bin	2531	0
bin	2563	0
bin	2595	0
bin	2627	0
bin	2659	0
bin	2691	0
bin	2723	0
bin	2755	0
bin	2787	0
bin	2819	1
bin	2851	0
bin	2883	0
bin	2915	0
bin	2947	0
bin	2979	0
bin	3011	0
bin	3043	0
bin	3075	0
bin	3107	0
bin	3139	0
bin	3171	1
bin	3203	0
bin	3235	0
bin	3267	0
bin	3299	0
bin	3331	0
bin	3363	0
bin	3395	0
bin	3427	0
bin	3459	0
bin	3491	0
bin	3523	0
bin	3555	0
bin	3587	0
bin	3619	0
bin	3651	0
bin	3683	0
bin	3715	0
bin	3747	0
bin	3779	0
bin	3811	0
bin	3843	0
bin	3875	0
bin	3907	0
bin	3939	0
bin	3971	0
bin	4003	0
bin	4035	0
bin	4067	0
bin	4099	0
bin	4131	0
bin	4163	0
bin	4195	0
bin	4227	0
bin	4259	0
bin	4291	0
bin	4323	0
bin	4355	0
bin	4387	0
bin	4419	0
bin	4451	0
bin	4483	0
bin	4515	0
bin	4547	0
bin	4579	0
bin	4611	0
bin	4643	0
bin	4675	0
bin	4707	0
bin	4739	0
bin	4771	0
scalar scenarioOpp.node[14].mobility 	Community 	0
scalar scenarioOpp.node[140].appl 	"# Bundle Sent" 	0
scalar scenarioOpp.node[140].appl 	"# Bundle Received" 	0
scalar scenarioOpp.node[140].netw 	"# L3Sent" 	1133
scalar scenarioOpp.node[140].netw 	"# L3Received" 	1020
scalar scenarioOpp.node[140].netw 	"# of Contacts" 	251
scalar scenarioOpp.node[140].netw 	"# of InterContacts" 	112
scalar scenarioOpp.node[140].netw 	"# Bundles at L3" 	437
statistic scenarioOpp.node[140].netw 	"Histogram for max nbr repeated contact"
field count 61
field mean 1.8360655737705
field stddev 1.583038511522
field sum 112
field sqrsum 356
field min 1
field max 11
attr type  int
bin	-INF	0
bin	-4	0
bin	-3	0
bin	-2	0
bin	-1	0
bin	0	0
bin	1	35
bin	2	15
bin	3	7
bin	4	1
bin	5	1
bin	6	1
bin	7	0
bin	8	0
bin	9	0
bin	10	0
bin	11	1
bin	12	0
bin	13	0
bin	14	0
bin	15	0
bin	16	0
scalar scenarioOpp.node[140].netw 	"Bars for #repeated 1" 	61
scalar scenarioOpp.node[140].netw 	"Bars for #repeated 2" 	26
scalar scenarioOpp.node[140].netw 	"Bars for #repeated 3" 	11
scalar scenarioOpp.node[140].netw 	"Bars for #repeated 4" 	4
scalar scenarioOpp.node[140].netw 	"Bars for #repeated 5" 	10
scalar scenarioOpp.node[140].netw 	"Contact CDF LQ1 #repeated 1" 	2
scalar scenarioOpp.node[140].netw 	"Contact CDF G1LQ5 #repeated 1" 	1
scalar scenarioOpp.node[140].netw 	"Contact CDF G5LQ20 #repeated 1" 	53
scalar scenarioOpp.node[140].netw 	"Contact CDF G20LQ50 #repeated 1" 	4
scalar scenarioOpp.node[140].netw 	"Contact CDF G50LQ100 #repeated 1" 	0
scalar scenarioOpp.node[140].netw 	"Contact CDF G100LQ500 #repeated 1" 	0
scalar scenarioOpp.node[140].netw 	"Contact CDF G500 #repeated 1" 	0
scalar scenarioOpp.node[140].netw 	"Contact CDF LQ1 #repeated 2" 	3
scalar scenarioOpp.node[140].netw 	"Contact CDF G1LQ5 #repeated 2" 	1
scalar scenarioOpp.node[140].netw 	"Contact CDF G5LQ20 #repeated 2" 	20
scalar scenarioOpp.node[140].netw 	"Contact CDF G20LQ50 #repeated 2" 	1
scalar scenarioOpp.node[140].netw 	"Contact CDF G50LQ100 #repeated 2" 	0
scalar scenarioOpp.node[140].netw 	"Contact CDF G100LQ500 #repeated 2" 	0
scalar scenarioOpp.node[140].netw 	"Contact CDF G500 #repeated 2" 	0
scalar scenarioOpp.node[140].netw 	"Contact CDF LQ1 #repeated 3" 	4
scalar scenarioOpp.node[140].netw 	"Contact CDF G1LQ5 #repeated 3" 	0
scalar scenarioOpp.node[140].netw 	"Contact CDF G5LQ20 #repeated 3" 	7
scalar scenarioOpp.node[140].netw 	"Contact CDF G20LQ50 #repeated 3" 	0
scalar scenarioOpp.node[140].netw 	"Contact CDF G50LQ100 #repeated 3" 	0
scalar scenarioOpp.node[140].netw 	"Contact CDF G100LQ500 #repeated 3" 	0
scalar scenarioOpp.node[140].netw 	"Contact CDF G500 #repeated 3" 	0
scalar scenarioOpp.node[140].netw 	"Contact CDF LQ1 #repeated 4" 	3
scalar scenarioOpp.node[140].netw 	"Contact CDF G1LQ5 #repeated 4" 	0
scalar scenarioOpp.node[140].netw 	"Contact CDF G5LQ20 #repeated 4" 	1
scalar scenarioOpp.node[140].netw 	"Contact CDF G20LQ50 #repeated 4" 	0
scalar scenarioOpp.node[140].netw 	"Contact CDF G50LQ100 #repeated 4" 	0
scalar scenarioOpp.node[140].netw 	"Contact CDF G100LQ500 #repeated 4" 	0
scalar scenarioOpp.node[140].netw 	"Contact CDF G500 #repeated 4" 	0
scalar scenarioOpp.node[140].netw 	"Contact CDF LQ1 #repeated 5" 	6
scalar scenarioOpp.node[140].netw 	"Contact CDF G1LQ5 #repeated 5" 	0
scalar scenarioOpp.node[140].netw 	"Contact CDF G5LQ20 #repeated 5" 	4
scalar scenarioOpp.node[140].netw 	"Contact CDF G20LQ50 #repeated 5" 	0
scalar scenarioOpp.node[140].netw 	"Contact CDF G50LQ100 #repeated 5" 	0
scalar scenarioOpp.node[140].netw 	"Contact CDF G100LQ500 #repeated 5" 	0
scalar scenarioOpp.node[140].netw 	"Contact CDF G500 #repeated 5" 	0
scalar scenarioOpp.node[140].netw 	"InterContact CDF LQ1 #repeated 1" 	2
scalar scenarioOpp.node[140].netw 	"InterContact CDF G1LQ5 #repeated 1" 	0
scalar scenarioOpp.node[140].netw 	"InterContact CDF G5LQ20 #repeated 1" 	0
scalar scenarioOpp.node[140].netw 	"InterContact CDF G20LQ50 #repeated 1" 	0
scalar scenarioOpp.node[140].netw 	"InterContact CDF G50LQ100 #repeated 1" 	0
scalar scenarioOpp.node[140].netw 	"InterContact CDF G100LQ500 #repeated 1" 	0
scalar scenarioOpp.node[140].netw 	"InterContact CDF G500 #repeated 1" 	22
scalar scenarioOpp.node[140].netw 	"InterContact CDF LQ1 #repeated 2" 	3
scalar scenarioOpp.node[140].netw 	"InterContact CDF G1LQ5 #repeated 2" 	0
scalar scenarioOpp.node[140].netw 	"InterContact CDF G5LQ20 #repeated 2" 	0
scalar scenarioOpp.node[140].netw 	"InterContact CDF G20LQ50 #repeated 2" 	0
scalar scenarioOpp.node[140].netw 	"InterContact CDF G50LQ100 #repeated 2" 	0
scalar scenarioOpp.node[140].netw 	"InterContact CDF G100LQ500 #repeated 2" 	0
scalar scenarioOpp.node[140].netw 	"InterContact CDF G500 #repeated 2" 	7
scalar scenarioOpp.node[140].netw 	"InterContact CDF LQ1 #repeated 3" 	3
scalar scenarioOpp.node[140].netw 	"InterContact CDF G1LQ5 #repeated 3" 	0
scalar scenarioOpp.node[140].netw 	"InterContact CDF G5LQ20 #repeated 3" 	0
scalar scenarioOpp.node[140].netw 	"InterContact CDF G20LQ50 #repeated 3" 	0
scalar scenarioOpp.node[140].netw 	"InterContact CDF G50LQ100 #repeated 3" 	0
scalar scenarioOpp.node[140].netw 	"InterContact CDF G100LQ500 #repeated 3" 	0
scalar scenarioOpp.node[140].netw 	"InterContact CDF G500 #repeated 3" 	1
scalar scenarioOpp.node[140].netw 	"InterContact CDF LQ1 #repeated 4" 	3
scalar scenarioOpp.node[140].netw 	"InterContact CDF G1LQ5 #repeated 4" 	0
scalar scenarioOpp.node[140].netw 	"InterContact CDF G5LQ20 #repeated 4" 	0
scalar scenarioOpp.node[140].netw 	"InterContact CDF G20LQ50 #repeated 4" 	0
scalar scenarioOpp.node[140].netw 	"InterContact CDF G50LQ100 #repeated 4" 	0
scalar scenarioOpp.node[140].netw 	"InterContact CDF G100LQ500 #repeated 4" 	0
scalar scenarioOpp.node[140].netw 	"InterContact CDF G500 #repeated 4" 	0
scalar scenarioOpp.node[140].netw 	"InterContact CDF LQ1 #repeated 5" 	6
scalar scenarioOpp.node[140].netw 	"InterContact CDF G1LQ5 #repeated 5" 	0
scalar scenarioOpp.node[140].netw 	"InterContact CDF G5LQ20 #repeated 5" 	0
scalar scenarioOpp.node[140].netw 	"InterContact CDF G20LQ50 #repeated 5" 	0
scalar scenarioOpp.node[140].netw 	"InterContact CDF G50LQ100 #repeated 5" 	1
scalar scenarioOpp.node[140].netw 	"InterContact CDF G100LQ500 #repeated 5" 	0
scalar scenarioOpp.node[140].netw 	"InterContact CDF G500 #repeated 5" 	1
statistic scenarioOpp.node[140].netw 	"Histogram for total contact duration"
field count 60
field mean 16.233333333333
field stddev 11.692916393497
field sum 974
field sqrsum 23878
field min 2
field max 68
attr type  int
bin	-INF	0
bin	-31	0
bin	-30	0
bin	-29	0
bin	-28	0
bin	-27	0
bin	-26	0
bin	-25	0
bin	-24	0
bin	-23	0
bin	-22	0
bin	-21	0
bin	-20	0
bin	-19	0
bin	-18	0
bin	-17	0
bin	-16	0
bin	-15	0
bin	-14	0
bin	-13	0
bin	-12	0
bin	-11	0
bin	-10	0
bin	-9	0
bin	-8	0
bin	-7	0
bin	-6	0
bin	-5	0
bin	-4	0
bin	-3	0
bin	-2	0
bin	-1	0
bin	0	0
bin	1	0
bin	2	1
bin	3	0
bin	4	0
bin	5	0
bin	6	0
bin	7	0
bin	8	0
bin	9	22
bin	10	8
bin	11	2
bin	12	1
bin	13	0
bin	14	0
bin	15	0
bin	16	0
bin	17	0
bin	18	8
bin	19	4
bin	20	1
bin	21	1
bin	22	2
bin	23	2
bin	24	0
bin	25	0
bin	26	0
bin	27	2
bin	28	3
bin	29	0
bin	30	0
bin	31	0
bin	32	0
bin	33	0
bin	34	0
bin	35	0
bin	36	0
bin	37	0
bin	38	0
bin	39	0
bin	40	1
bin	41	0
bin	42	0
bin	43	0
bin	44	0
bin	45	0
bin	46	0
bin	47	0
bin	48	0
bin	49	0
bin	50	0
bin	51	0
bin	52	0
bin	53	0
bin	54	0
bin	55	0
bin	56	0
bin	57	0
bin	58	0
bin	59	0
bin	60	0
bin	61	0
bin	62	0
bin	63	1
bin	64	0
bin	65	0
bin	66	0
bin	67	0
bin	68	1
bin	69	0
bin	70	0
bin	71	0
bin	72	0
bin	73	0
bin	74	0
bin	75	0
bin	76	0
bin	77	0
bin	78	0
bin	79	0
bin	80	0
bin	81	0
bin	82	0
bin	83	0
bin	84	0
bin	85	0
bin	86	0
bin	87	0
bin	88	0
bin	89	0
bin	90	0
bin	91	0
bin	92	0
bin	93	0
bin	94	0
bin	95	0
bin	96	0
bin	97	0
bin	98	0
bin	99	0
bin	100	0
bin	101	0
statistic scenarioOpp.node[140].netw 	"Histogram for total interContact duration"
field count 61
field mean 776.37704918033
field stddev 385.07515127719
field sum 47359
field sqrsum 45665413
field min 2
field max 1469
attr type  int
bin	-INF	0
bin	-734	0
bin	-719	0
bin	-704	0
bin	-689	0
bin	-674	0
bin	-659	0
bin	-644	0
bin	-629	0
bin	-614	0
bin	-599	0
bin	-584	0
bin	-569	0
bin	-554	0
bin	-539	0
bin	-524	0
bin	-509	0
bin	-494	0
bin	-479	0
bin	-464	0
bin	-449	0
bin	-434	0
bin	-419	0
bin	-404	0
bin	-389	0
bin	-374	0
bin	-359	0
bin	-344	0
bin	-329	0
bin	-314	0
bin	-299	0
bin	-284	0
bin	-269	0
bin	-254	0
bin	-239	0
bin	-224	0
bin	-209	0
bin	-194	0
bin	-179	0
bin	-164	0
bin	-149	0
bin	-134	0
bin	-119	0
bin	-104	0
bin	-89	0
bin	-74	0
bin	-59	0
bin	-44	0
bin	-29	0
bin	-14	0
bin	1	1
bin	16	0
bin	31	0
bin	46	0
bin	61	0
bin	76	0
bin	91	0
bin	106	0
bin	121	0
bin	136	3
bin	151	0
bin	166	0
bin	181	0
bin	196	0
bin	211	0
bin	226	0
bin	241	0
bin	256	0
bin	271	1
bin	286	2
bin	301	0
bin	316	0
bin	331	0
bin	346	0
bin	361	0
bin	376	0
bin	391	1
bin	406	0
bin	421	5
bin	436	9
bin	451	0
bin	466	0
bin	481	0
bin	496	0
bin	511	0
bin	526	0
bin	541	0
bin	556	0
bin	571	1
bin	586	1
bin	601	0
bin	616	0
bin	631	0
bin	646	0
bin	661	0
bin	676	0
bin	691	0
bin	706	1
bin	721	6
bin	736	1
bin	751	0
bin	766	0
bin	781	0
bin	796	0
bin	811	0
bin	826	0
bin	841	0
bin	856	1
bin	871	6
bin	886	0
bin	901	0
bin	916	0
bin	931	0
bin	946	0
bin	961	0
bin	976	0
bin	991	0
bin	1006	1
bin	1021	6
bin	1036	0
bin	1051	0
bin	1066	0
bin	1081	0
bin	1096	0
bin	1111	0
bin	1126	1
bin	1141	0
bin	1156	1
bin	1171	4
bin	1186	0
bin	1201	0
bin	1216	0
bin	1231	0
bin	1246	0
bin	1261	0
bin	1276	0
bin	1291	3
bin	1306	1
bin	1321	2
bin	1336	0
bin	1351	0
bin	1366	0
bin	1381	0
bin	1396	0
bin	1411	0
bin	1426	1
bin	1441	0
bin	1456	2
bin	1471	0
bin	1486	0
bin	1501	0
bin	1516	0
bin	1531	0
bin	1546	0
bin	1561	0
bin	1576	0
bin	1591	0
bin	1606	0
bin	1621	0
bin	1636	0
bin	1651	0
bin	1666	0
bin	1681	0
bin	1696	0
bin	1711	0
bin	1726	0
bin	1741	0
bin	1756	0
bin	1771	0
bin	1786	0
bin	1801	0
bin	1816	0
bin	1831	0
bin	1846	0
bin	1861	0
bin	1876	0
bin	1891	0
bin	1906	0
bin	1921	0
bin	1936	0
bin	1951	0
bin	1966	0
bin	1981	0
bin	1996	0
bin	2011	0
bin	2026	0
bin	2041	0
bin	2056	0
bin	2071	0
bin	2086	0
bin	2101	0
bin	2116	0
bin	2131	0
bin	2146	0
bin	2161	0
bin	2176	0
bin	2191	0
bin	2206	0
scalar scenarioOpp.node[140].mobility 	Community 	0
scalar scenarioOpp.node[154].appl 	"# Bundle Sent" 	0
scalar scenarioOpp.node[154].appl 	"# Bundle Received" 	0
scalar scenarioOpp.node[154].netw 	"# L3Sent" 	819
scalar scenarioOpp.node[154].netw 	"# L3Received" 	838
scalar scenarioOpp.node[154].netw 	"# of Contacts" 	187
scalar scenarioOpp.node[154].netw 	"# of InterContacts" 	54
scalar scenarioOpp.node[154].netw 	"# Bundles at L3" 	425
statistic scenarioOpp.node[154].netw 	"Histogram for max nbr repeated contact"
field count 43
field mean 1.2558139534884
field stddev 0.81920470305959
field sum 54
field sqrsum 96
field min 1
field max 6
attr type  int
bin	-INF	0
bin	-2	0
bin	-1	0
bin	0	0
bin	1	36
bin	2	6
bin	3	0
bin	4	0
bin	5	0
bin	6	1
bin	7	0
bin	8	0
bin	9	0
scalar scenarioOpp.node[154].netw 	"Bars for #repeated 1" 	43
scalar scenarioOpp.node[154].netw 	"Bars for #repeated 2" 	7
scalar scenarioOpp.node[154].netw 	"Bars for #repeated 3" 	1
scalar scenarioOpp.node[154].netw 	"Bars for #repeated 4" 	1
scalar scenarioOpp.node[154].netw 	"Bars for #repeated 5" 	2
scalar scenarioOpp.node[154].netw 	"Contact CDF LQ1 #repeated 1" 	3
scalar scenarioOpp.node[154].netw 	"Contact CDF G1LQ5 #repeated 1" 	2
scalar scenarioOpp.node[154].netw 	"Contact CDF G5LQ20 #repeated 1" 	34
scalar scenarioOpp.node[154].netw 	"Contact CDF G20LQ50 #repeated 1" 	2
scalar scenarioOpp.node[154].netw 	"Contact CDF G50LQ100 #repeated 1" 	0
scalar scenarioOpp.node[154].netw 	"Contact CDF G100LQ500 #repeated 1" 	0
scalar scenarioOpp.node[154].netw 	"Contact CDF G500 #repeated 1" 	0
scalar scenarioOpp.node[154].netw 	"Contact CDF LQ1 #repeated 2" 	2
scalar scenarioOpp.node[154].netw 	"Contact CDF G1LQ5 #repeated 2" 	0
scalar scenarioOpp.node[154].netw 	"Contact CDF G5LQ20 #repeated 2" 	5
scalar scenarioOpp.node[154].netw 	"Contact CDF G20LQ50 #repeated 2" 	0
scalar scenarioOpp.node[154].netw 	"Contact CDF G50LQ100 #repeated 2" 	0
scalar scenarioOpp.node[154].netw 	"Contact CDF G100LQ500 #repeated 2" 	0
scalar scenarioOpp.node[154].netw 	"Contact CDF G500 #repeated 2" 	0
scalar scenarioOpp.node[154].netw 	"Contact CDF LQ1 #repeated 3" 	1
scalar scenarioOpp.node[154].netw 	"Contact CDF G1LQ5 #repeated 3" 	0
scalar scenarioOpp.node[154].netw 	"Contact CDF G5LQ20 #repeated 3" 	0
scalar scenarioOpp.node[154].netw 	"Contact CDF G20LQ50 #repeated 3" 	0
scalar scenarioOpp.node[154].netw 	"Contact CDF G50LQ100 #repeated 3" 	0
scalar scenarioOpp.node[154].netw 	"Contact CDF G100LQ500 #repeated 3" 	0
scalar scenarioOpp.node[154].netw 	"Contact CDF G500 #repeated 3" 	0
scalar scenarioOpp.node[154].netw 	"Contact CDF LQ1 #repeated 4" 	1
scalar scenarioOpp.node[154].netw 	"Contact CDF G1LQ5 #repeated 4" 	0
scalar scenarioOpp.node[154].netw 	"Contact CDF G5LQ20 #repeated 4" 	0
scalar scenarioOpp.node[154].netw 	"Contact CDF G20LQ50 #repeated 4" 	0
scalar scenarioOpp.node[154].netw 	"Contact CDF G50LQ100 #repeated 4" 	0
scalar scenarioOpp.node[154].netw 	"Contact CDF G100LQ500 #repeated 4" 	0
scalar scenarioOpp.node[154].netw 	"Contact CDF G500 #repeated 4" 	0
scalar scenarioOpp.node[154].netw 	"Contact CDF LQ1 #repeated 5" 	0
scalar scenarioOpp.node[154].netw 	"Contact CDF G1LQ5 #repeated 5" 	0
scalar scenarioOpp.node[154].netw 	"Contact CDF G5LQ20 #repeated 5" 	1
scalar scenarioOpp.node[154].netw 	"Contact CDF G20LQ50 #repeated 5" 	0
scalar scenarioOpp.node[154].netw 	"Contact CDF G50LQ100 #repeated 5" 	0
scalar scenarioOpp.node[154].netw 	"Contact CDF G100LQ500 #repeated 5" 	0
scalar scenarioOpp.node[154].netw 	"Contact CDF G500 #repeated 5" 	0
scalar scenarioOpp.node[154].netw 	"InterContact CDF LQ1 #repeated 1" 	5
scalar scenarioOpp.node[154].netw 	"InterContact CDF G1LQ5 #repeated 1" 	0
scalar scenarioOpp.node[154].netw 	"InterContact CDF G5LQ20 #repeated 1" 	0
scalar scenarioOpp.node[154].netw 	"InterContact CDF G20LQ50 #repeated 1" 	0
scalar scenarioOpp.node[154].netw 	"InterContact CDF G50LQ100 #repeated 1" 	1
scalar scenarioOpp.node[154].netw 	"InterContact CDF G100LQ500 #repeated 1" 	0
scalar scenarioOpp.node[154].netw 	"InterContact CDF G500 #repeated 1" 	11
scalar scenarioOpp.node[154].netw 	"InterContact CDF LQ1 #repeated 2" 	3
scalar scenarioOpp.node[154].netw 	"InterContact CDF G1LQ5 #repeated 2" 	0
scalar scenarioOpp.node[154].netw 	"InterContact CDF G5LQ20 #repeated 2" 	0
scalar scenarioOpp.node[154].netw 	"InterContact CDF G20LQ50 #repeated 2" 	0
scalar scenarioOpp.node[154].netw 	"InterContact CDF G50LQ100 #repeated 2" 	0
scalar scenarioOpp.node[154].netw 	"InterContact CDF G100LQ500 #repeated 2" 	0
scalar scenarioOpp.node[154].netw 	"InterContact CDF G500 #repeated 2" 	0
scalar scenarioOpp.node[154].netw 	"InterContact CDF LQ1 #repeated 3" 	1
scalar scenarioOpp.node[154].netw 	"InterContact CDF G1LQ5 #repeated 3" 	0
scalar scenarioOpp.node[154].netw 	"InterContact CDF G5LQ20 #repeated 3" 	0
scalar scenarioOpp.node[154].netw 	"InterContact CDF G20LQ50 #repeated 3" 	0
scalar scenarioOpp.node[154].netw 	"InterContact CDF G50LQ100 #repeated 3" 	0
scalar scenarioOpp.node[154].netw 	"InterContact CDF G100LQ500 #repeated 3" 	0
scalar scenarioOpp.node[154].netw 	"InterContact CDF G500 #repeated 3" 	0
scalar scenarioOpp.node[154].netw 	"InterContact CDF LQ1 #repeated 4" 	0
scalar scenarioOpp.node[154].netw 	"InterContact CDF G1LQ5 #repeated 4" 	0
scalar scenarioOpp.node[154].netw 	"InterContact CDF G5LQ20 #repeated 4" 	0
scalar scenarioOpp.node[154].netw 	"InterContact CDF G20LQ50 #repeated 4" 	0
scalar scenarioOpp.node[154].netw 	"InterContact CDF G50LQ100 #repeated 4" 	1
scalar scenarioOpp.node[154].netw 	"InterContact CDF G100LQ500 #repeated 4" 	0
scalar scenarioOpp.node[154].netw 	"InterContact CDF G500 #repeated 4" 	0
scalar scenarioOpp.node[154].netw 	"InterContact CDF LQ1 #repeated 5" 	1
scalar scenarioOpp.node[154].netw 	"InterContact CDF G1LQ5 #repeated 5" 	0
scalar scenarioOpp.node[154].netw 	"InterContact CDF G5LQ20 #repeated 5" 	0
scalar scenarioOpp.node[154].netw 	"InterContact CDF G20LQ50 #repeated 5" 	0
scalar scenarioOpp.node[154].netw 	"InterContact CDF G50LQ100 #repeated 5" 	0
scalar scenarioOpp.node[154].netw 	"InterContact CDF G100LQ500 #repeated 5" 	0
scalar scenarioOpp.node[154].netw 	"InterContact CDF G500 #repeated 5" 	1
statistic scenarioOpp.node[154].netw 	"Histogram for total contact duration"
field count 42
field mean 14.666666666667
field stddev 24.038248654467
field sum 616
field sqrsum 32726
field min 0
field max 161
attr type  int
bin	-INF	0
bin	-81	0
bin	-79	0
bin	-77	0
bin	-75	0
bin	-73	0
bin	-71	0
bin	-69	0
bin	-67	0
bin	-65	0
bin	-63	0
bin	-61	0
bin	-59	0
bin	-57	0
bin	-55	0
bin	-53	0
bin	-51	0
bin	-49	0
bin	-47	0
bin	-45	0
bin	-43	0
bin	-41	0
bin	-39	0
bin	-37	0
bin	-35	0
bin	-33	0
bin	-31	0
bin	-29	0
bin	-27	0
bin	-25	0
bin	-23	0
bin	-21	0
bin	-19	0
bin	-17	0
bin	-15	0
bin	-13	0
bin	-11	0
bin	-9	0
bin	-7	0
bin	-5	0
bin	-3	0
bin	-1	1
bin	1	1
bin	3	2
bin	5	0
bin	7	0
bin	9	26
bin	11	4
bin	13	0
bin	15	0
bin	17	3
bin	19	2
bin	21	1
bin	23	0
bin	25	0
bin	27	0
bin	29	0
bin	31	0
bin	33	0
bin	35	0
bin	37	0
bin	39	0
bin	41	1
bin	43	0
bin	45	0
bin	47	0
bin	49	0
bin	51	0
bin	53	0
bin	55	0
bin	57	0
bin	59	0
bin	61	0
bin	63	0
bin	65	0
bin	67	0
bin	69	0
bin	71	0
bin	73	0
bin	75	0
bin	77	0
bin	79	0
bin	81	0
bin	83	0
bin	85	0
bin	87	0
bin	89	0
bin	91	0
bin	93	0
bin	95	0
bin	97	0
bin	99	0
bin	101	0
bin	103	0
bin	105	0
bin	107	0
bin	109	0
bin	111	0
bin	113	0
bin	115	0
bin	117	0
bin	119	0
bin	121	0
bin	123	0
bin	125	0
bin	127	0
bin	129	0
bin	131	0
bin	133	0
bin	135	0
bin	137	0
bin	139	0
bin	141	0
bin	143	0
bin	145	0
bin	147	0
bin	149	0
bin	151	0
bin	153	0
bin	155	0
bin	157	0
bin	159	0
bin	161	1
bin	163	0
bin	165	0
bin	167	0
bin	169	0
bin	171	0
bin	173	0
bin	175	0
bin	177	0
bin	179	0
bin	181	0
bin	183	0
bin	185	0
bin	187	0
bin	189	0
bin	191	0
bin	193	0
bin	195	0
bin	197	0
bin	199	0
bin	201	0
bin	203	0
bin	205	0
bin	207	0
bin	209	0
bin	211	0
bin	213	0
bin	215	0
bin	217	0
bin	219	0
bin	221	0
bin	223	0
bin	225	0
bin	227	0
bin	229	0
bin	231	0
bin	233	0
bin	235	0
bin	237	0
bin	239	0
bin	241	0
bin	243	0
statistic scenarioOpp.node[154].netw 	"Histogram for total interContact duration"
field count 43
field mean 468.32558139535
field stddev 312.05110394432
field sum 20138
field sqrsum 13520928
field min 0
field max 1277
attr type  int
bin	-INF	0
bin	-642	0
bin	-629	0
bin	-616	0
bin	-603	0
bin	-590	0
bin	-577	0
bin	-564	0
bin	-551	0
bin	-538	0
bin	-525	0
bin	-512	0
bin	-499	0
bin	-486	0
bin	-473	0
bin	-460	0
bin	-447	0
bin	-434	0
bin	-421	0
bin	-408	0
bin	-395	0
bin	-382	0
bin	-369	0
bin	-356	0
bin	-343	0
bin	-330	0
bin	-317	0
bin	-304	0
bin	-291	0
bin	-278	0
bin	-265	0
bin	-252	0
bin	-239	0
bin	-226	0
bin	-213	0
bin	-200	0
bin	-187	0
bin	-174	0
bin	-161	0
bin	-148	0
bin	-135	0
bin	-122	0
bin	-109	0
bin	-96	0
bin	-83	0
bin	-70	0
bin	-57	0
bin	-44	0
bin	-31	0
bin	-18	0
bin	-5	5
bin	8	0
bin	21	0
bin	34	0
bin	47	0
bin	60	0
bin	73	0
bin	86	0
bin	99	0
bin	112	0
bin	125	1
bin	138	1
bin	151	0
bin	164	0
bin	177	0
bin	190	0
bin	203	0
bin	216	0
bin	229	0
bin	242	0
bin	255	0
bin	268	5
bin	281	5
bin	294	0
bin	307	0
bin	320	0
bin	333	0
bin	346	0
bin	359	0
bin	372	0
bin	385	0
bin	398	0
bin	411	0
bin	424	9
bin	437	2
bin	450	0
bin	463	0
bin	476	0
bin	489	0
bin	502	0
bin	515	0
bin	528	0
bin	541	0
bin	554	0
bin	567	1
bin	580	3
bin	593	0
bin	606	0
bin	619	0
bin	632	0
bin	645	0
bin	658	0
bin	671	0
bin	684	0
bin	697	0
bin	710	1
bin	723	2
bin	736	0
bin	749	0
bin	762	0
bin	775	0
bin	788	0
bin	801	0
bin	814	0
bin	827	0
bin	840	1
bin	853	1
bin	866	2
bin	879	0
bin	892	0
bin	905	0
bin	918	0
bin	931	0
bin	944	0
bin	957	0
bin	970	0
bin	983	0
bin	996	1
bin	1009	1
bin	1022	1
bin	1035	0
bin	1048	0
bin	1061	0
bin	1074	0
bin	1087	0
bin	1100	0
bin	1113	0
bin	1126	0
bin	1139	0
bin	1152	0
bin	1165	0
bin	1178	0
bin	1191	0
bin	1204	0
bin	1217	0
bin	1230	0
bin	1243	0
bin	1256	0
bin	1269	1
bin	1282	0
bin	1295	0
bin	1308	0
bin	1321	0
bin	1334	0
bin	1347	0
bin	1360	0
bin	1373	0
bin	1386	0
bin	1399	0
bin	1412	0
bin	1425	0
bin	1438	0
bin	1451	0
bin	1464	0
bin	1477	0
bin	1490	0
bin	1503	0
bin	1516	0
bin	1529	0
bin	1542	0
bin	1555	0
bin	1568	0
bin	1581	0
bin	1594	0
bin	1607	0
bin	1620	0
bin	1633	0
bin	1646	0
bin	1659	0
bin	1672	0
bin	1685	0
bin	1698	0
bin	1711	0
bin	1724	0
bin	1737	0
bin	1750	0
bin	1763	0
bin	1776	0
bin	1789	0
bin	1802	0
bin	1815	0
bin	1828	0
bin	1841	0
bin	1854	0
bin	1867	0
bin	1880	0
bin	1893	0
bin	1906	0
bin	1919	0
scalar scenarioOpp.node[154].mobility 	Community 	0
scalar scenarioOpp.node[168].appl 	"# Bundle Sent" 	0
scalar scenarioOpp.node[168].appl 	"# Bundle Received" 	0
scalar scenarioOpp.node[168].netw 	"# L3Sent" 	1078
scalar scenarioOpp.node[168].netw 	"# L3Received" 	791
scalar scenarioOpp.node[168].netw 	"# of Contacts" 	602
scalar scenarioOpp.node[168].netw 	"# of InterContacts" 	482
scalar scenarioOpp.node[168].netw 	"# Bundles at L3" 	360
statistic scenarioOpp.node[168].netw 	"Histogram for max nbr repeated contact"
field count 41
field mean 11.756097560976
field stddev 41.87886130723
field sum 482
field sqrsum 75820
field min 1
field max 199
attr type  int
bin	-INF	0
bin	-98	0
bin	-96	0
bin	-94	0
bin	-92	0
bin	-90	0
bin	-88	0
bin	-86	0
bin	-84	0
bin	-82	0
bin	-80	0
bin	-78	0
bin	-76	0
bin	-74	0
bin	-72	0
bin	-70	0
bin	-68	0
bin	-66	0
bin	-64	0
bin	-62	0
bin	-60	0
bin	-58	0
bin	-56	0
bin	-54	0
bin	-52	0
bin	-50	0
bin	-48	0
bin	-46	0
bin	-44	0
bin	-42	0
bin	-40	0
bin	-38	0
bin	-36	0
bin	-34	0
bin	-32	0
bin	-30	0
bin	-28	0
bin	-26	0
bin	-24	0
bin	-22	0
bin	-20	0
bin	-18	0
bin	-16	0
bin	-14	0
bin	-12	0
bin	-10	0
bin	-8	0
bin	-6	0
bin	-4	0
bin	-2	0
bin	0	26
bin	2	8
bin	4	2
bin	6	0
bin	8	0
bin	10	2
bin	12	0
bin	14	0
bin	16	0
bin	18	0
bin	20	0
bin	22	0
bin	24	1
bin	26	0
bin	28	0
bin	30	0
bin	32	0
bin	34	0
bin	36	0
bin	38	0
bin	40	0
bin	42	0
bin	44	0
bin	46	0
bin	48	0
bin	50	0
bin	52	0
bin	54	0
bin	56	0
bin	58	0
bin	60	0
bin	62	0
bin	64	0
bin	66	0
bin	68	0
bin	70	0
bin	72	0
bin	74	0
bin	76	0
bin	78	0
bin	80	0
bin	82	0
bin	84	0
bin	86	0
bin	88	0
bin	90	0
bin	92	0
bin	94	0
bin	96	0
bin	98	0
bin	100	0
bin	102	0
bin	104	0
bin	106	0
bin	108	0
bin	110	0
bin	112	0
bin	114	0
bin	116	0
bin	118	0
bin	120	0
bin	122	0
bin	124	0
bin	126	0
bin	128	0
bin	130	0
bin	132	0
bin	134	0
bin	136	0
bin	138	0
bin	140	0
bin	142	0
bin	144	0
bin	146	0
bin	148	0
bin	150	0
bin	152	0
bin	154	0
bin	156	0
bin	158	0
bin	160	0
bin	162	0
bin	164	0
bin	166	0
bin	168	0
bin	170	0
bin	172	0
bin	174	0
bin	176	0
bin	178	0
bin	180	0
bin	182	0
bin	184	0
bin	186	0
bin	188	1
bin	190	0
bin	192	0
bin	194	0
bin	196	0
bin	198	1
bin	200	0
bin	202	0
bin	204	0
bin	206	0
bin	208	0
bin	210	0
bin	212	0
bin	214	0
bin	216	0
bin	218	0
bin	220	0
bin	222	0
bin	224	0
bin	226	0
bin	228	0
bin	230	0
bin	232	0
bin	234	0
bin	236	0
bin	238	0
bin	240	0
bin	242	0
bin	244	0
bin	246	0
bin	248	0
bin	250	0
bin	252	0
bin	254	0
bin	256	0
bin	258	0
bin	260	0
bin	262	0
bin	264	0
bin	266	0
bin	268	0
bin	270	0
bin	272	0
bin	274	0
bin	276	0
bin	278	0
bin	280	0
bin	282	0
bin	284	0
bin	286	0
bin	288	0
bin	290	0
bin	292	0
bin	294	0
bin	296	0
bin	298	0
scalar scenarioOpp.node[168].netw 	"Bars for #repeated 1" 	41
scalar scenarioOpp.node[168].netw 	"Bars for #repeated 2" 	15
scalar scenarioOpp.node[168].netw 	"Bars for #repeated 3" 	7
scalar scenarioOpp.node[168].netw 	"Bars for #repeated 4" 	7
scalar scenarioOpp.node[168].netw 	"Bars for #repeated 5" 	412
scalar scenarioOpp.node[168].netw 	"Contact CDF LQ1 #repeated 1" 	9
scalar scenarioOpp.node[168].netw 	"Contact CDF G1LQ5 #repeated 1" 	0
scalar scenarioOpp.node[168].netw 	"Contact CDF G5LQ20 #repeated 1" 	30
scalar scenarioOpp.node[168].netw 	"Contact CDF G20LQ50 #repeated 1" 	2
scalar scenarioOpp.node[168].netw 	"Contact CDF G50LQ100 #repeated 1" 	0
scalar scenarioOpp.node[168].netw 	"Contact CDF G100LQ500 #repeated 1" 	0
scalar scenarioOpp.node[168].netw 	"Contact CDF G500 #repeated 1" 	0
scalar scenarioOpp.node[168].netw 	"Contact CDF LQ1 #repeated 2" 	7
scalar scenarioOpp.node[168].netw 	"Contact CDF G1LQ5 #repeated 2" 	1
scalar scenarioOpp.node[168].netw 	"Contact CDF G5LQ20 #repeated 2" 	7
scalar scenarioOpp.node[168].netw 	"Contact CDF G20LQ50 #repeated 2" 	0
scalar scenarioOpp.node[168].netw 	"Contact CDF G50LQ100 #repeated 2" 	0
scalar scenarioOpp.node[168].netw 	"Contact CDF G100LQ500 #repeated 2" 	0
scalar scenarioOpp.node[168].netw 	"Contact CDF G500 #repeated 2" 	0
scalar scenarioOpp.node[168].netw 	"Contact CDF LQ1 #repeated 3" 	7
scalar scenarioOpp.node[168].netw 	"Contact CDF G1LQ5 #repeated 3" 	0
scalar scenarioOpp.node[168].netw 	"Contact CDF G5LQ20 #repeated 3" 	0
scalar scenarioOpp.node[168].netw 	"Contact CDF G20LQ50 #repeated 3" 	0
scalar scenarioOpp.node[168].netw 	"Contact CDF G50LQ100 #repeated 3" 	0
scalar scenarioOpp.node[168].netw 	"Contact CDF G100LQ500 #repeated 3" 	0
scalar scenarioOpp.node[168].netw 	"Contact CDF G500 #repeated 3" 	0
scalar scenarioOpp.node[168].netw 	"Contact CDF LQ1 #repeated 4" 	6
scalar scenarioOpp.node[168].netw 	"Contact CDF G1LQ5 #repeated 4" 	0
scalar scenarioOpp.node[168].netw 	"Contact CDF G5LQ20 #repeated 4" 	1
scalar scenarioOpp.node[168].netw 	"Contact CDF G20LQ50 #repeated 4" 	0
scalar scenarioOpp.node[168].netw 	"Contact CDF G50LQ100 #repeated 4" 	0
scalar scenarioOpp.node[168].netw 	"Contact CDF G100LQ500 #repeated 4" 	0
scalar scenarioOpp.node[168].netw 	"Contact CDF G500 #repeated 4" 	0
scalar scenarioOpp.node[168].netw 	"Contact CDF LQ1 #repeated 5" 	398
scalar scenarioOpp.node[168].netw 	"Contact CDF G1LQ5 #repeated 5" 	1
scalar scenarioOpp.node[168].netw 	"Contact CDF G5LQ20 #repeated 5" 	12
scalar scenarioOpp.node[168].netw 	"Contact CDF G20LQ50 #repeated 5" 	0
scalar scenarioOpp.node[168].netw 	"Contact CDF G50LQ100 #repeated 5" 	0
scalar scenarioOpp.node[168].netw 	"Contact CDF G100LQ500 #repeated 5" 	0
scalar scenarioOpp.node[168].netw 	"Contact CDF G500 #repeated 5" 	1
scalar scenarioOpp.node[168].netw 	"InterContact CDF LQ1 #repeated 1" 	5
scalar scenarioOpp.node[168].netw 	"InterContact CDF G1LQ5 #repeated 1" 	0
scalar scenarioOpp.node[168].netw 	"InterContact CDF G5LQ20 #repeated 1" 	0
scalar scenarioOpp.node[168].netw 	"InterContact CDF G20LQ50 #repeated 1" 	0
scalar scenarioOpp.node[168].netw 	"InterContact CDF G50LQ100 #repeated 1" 	5
scalar scenarioOpp.node[168].netw 	"InterContact CDF G100LQ500 #repeated 1" 	0
scalar scenarioOpp.node[168].netw 	"InterContact CDF G500 #repeated 1" 	11
scalar scenarioOpp.node[168].netw 	"InterContact CDF LQ1 #repeated 2" 	10
scalar scenarioOpp.node[168].netw 	"InterContact CDF G1LQ5 #repeated 2" 	0
scalar scenarioOpp.node[168].netw 	"InterContact CDF G5LQ20 #repeated 2" 	0
scalar scenarioOpp.node[168].netw 	"InterContact CDF G20LQ50 #repeated 2" 	0
scalar scenarioOpp.node[168].netw 	"InterContact CDF G50LQ100 #repeated 2" 	0
scalar scenarioOpp.node[168].netw 	"InterContact CDF G100LQ500 #repeated 2" 	0
scalar scenarioOpp.node[168].netw 	"InterContact CDF G500 #repeated 2" 	1
scalar scenarioOpp.node[168].netw 	"InterContact CDF LQ1 #repeated 3" 	7
scalar scenarioOpp.node[168].netw 	"InterContact CDF G1LQ5 #repeated 3" 	0
scalar scenarioOpp.node[168].netw 	"InterContact CDF G5LQ20 #repeated 3" 	0
scalar scenarioOpp.node[168].netw 	"InterContact CDF G20LQ50 #repeated 3" 	0
scalar scenarioOpp.node[168].netw 	"InterContact CDF G50LQ100 #repeated 3" 	0
scalar scenarioOpp.node[168].netw 	"InterContact CDF G100LQ500 #repeated 3" 	0
scalar scenarioOpp.node[168].netw 	"InterContact CDF G500 #repeated 3" 	0
scalar scenarioOpp.node[168].netw 	"InterContact CDF LQ1 #repeated 4" 	5
scalar scenarioOpp.node[168].netw 	"InterContact CDF G1LQ5 #repeated 4" 	0
scalar scenarioOpp.node[168].netw 	"InterContact CDF G5LQ20 #repeated 4" 	0
scalar scenarioOpp.node[168].netw 	"InterContact CDF G20LQ50 #repeated 4" 	0
scalar scenarioOpp.node[168].netw 	"InterContact CDF G50LQ100 #repeated 4" 	1
scalar scenarioOpp.node[168].netw 	"InterContact CDF G100LQ500 #repeated 4" 	0
scalar scenarioOpp.node[168].netw 	"InterContact CDF G500 #repeated 4" 	0
scalar scenarioOpp.node[168].netw 	"InterContact CDF LQ1 #repeated 5" 	403
scalar scenarioOpp.node[168].netw 	"InterContact CDF G1LQ5 #repeated 5" 	0
scalar scenarioOpp.node[168].netw 	"InterContact CDF G5LQ20 #repeated 5" 	0
scalar scenarioOpp.node[168].netw 	"InterContact CDF G20LQ50 #repeated 5" 	0
scalar scenarioOpp.node[168].netw 	"InterContact CDF G50LQ100 #repeated 5" 	4
scalar scenarioOpp.node[168].netw 	"InterContact CDF G100LQ500 #repeated 5" 	0
scalar scenarioOpp.node[168].netw 	"InterContact CDF G500 #repeated 5" 	1
statistic scenarioOpp.node[168].netw 	"Histogram for total contact duration"
field count 41
field mean 39
field stddev 105.21977000545
field sum 1599
field sqrsum 505209
field min 0
field max 625
attr type  int
bin	-INF	0
bin	-314	0
bin	-307	0
bin	-300	0
bin	-293	0
bin	-286	0
bin	-279	0
bin	-272	0
bin	-265	0
bin	-258	0
bin	-251	0
bin	-244	0
bin	-237	0
bin	-230	0
bin	-223	0
bin	-216	0
bin	-209	0
bin	-202	0
bin	-195	0
bin	-188	0
bin	-181	0
bin	-174	0
bin	-167	0
bin	-160	0
bin	-153	0
bin	-146	0
bin	-139	0
bin	-132	0
bin	-125	0
bin	-118	0
bin	-111	0
bin	-104	0
bin	-97	0
bin	-90	0
bin	-83	0
bin	-76	0
bin	-69	0
bin	-62	0
bin	-55	0
bin	-48	0
bin	-41	0
bin	-34	0
bin	-27	0
bin	-20	0
bin	-13	0
bin	-6	1
bin	1	1
bin	8	26
bin	15	4
bin	22	2
bin	29	2
bin	36	2
bin	43	0
bin	50	0
bin	57	0
bin	64	0
bin	71	0
bin	78	0
bin	85	0
bin	92	0
bin	99	0
bin	106	0
bin	113	0
bin	120	0
bin	127	0
bin	134	0
bin	141	0
bin	148	0
bin	155	0
bin	162	0
bin	169	0
bin	176	0
bin	183	0
bin	190	0
bin	197	0
bin	204	0
bin	211	0
bin	218	0
bin	225	2
bin	232	0
bin	239	0
bin	246	0
bin	253	0
bin	260	0
bin	267	0
bin	274	0
bin	281	0
bin	288	0
bin	295	0
bin	302	0
bin	309	0
bin	316	0
bin	323	0
bin	330	0
bin	337	0
bin	344	0
bin	351	0
bin	358	0
bin	365	0
bin	372	0
bin	379	0
bin	386	0
bin	393	0
bin	400	0
bin	407	0
bin	414	0
bin	421	0
bin	428	0
bin	435	0
bin	442	0
bin	449	0
bin	456	0
bin	463	0
bin	470	0
bin	477	0
bin	484	0
bin	491	0
bin	498	0
bin	505	0
bin	512	0
bin	519	0
bin	526	0
bin	533	0
bin	540	0
bin	547	0
bin	554	0
bin	561	0
bin	568	0
bin	575	0
bin	582	0
bin	589	0
bin	596	0
bin	603	0
bin	610	0
bin	617	0
bin	624	1
bin	631	0
bin	638	0
bin	645	0
bin	652	0
bin	659	0
bin	666	0
bin	673	0
bin	680	0
bin	687	0
bin	694	0
bin	701	0
bin	708	0
bin	715	0
bin	722	0
bin	729	0
bin	736	0
bin	743	0
bin	750	0
bin	757	0
bin	764	0
bin	771	0
bin	778	0
bin	785	0
bin	792	0
bin	799	0
bin	806	0
bin	813	0
bin	820	0
bin	827	0
bin	834	0
bin	841	0
bin	848	0
bin	855	0
bin	862	0
bin	869	0
bin	876	0
bin	883	0
bin	890	0
bin	897	0
bin	904	0
bin	911	0
bin	918	0
bin	925	0
bin	932	0
bin	939	0
statistic scenarioOpp.node[168].netw 	"Histogram for total interContact duration"
field count 41
field mean 489.12195121951
field stddev 344.13973870522
field sum 20054
field sqrsum 14546138
field min 0
field max 1286
attr type  int
bin	-INF	0
bin	-644	0
bin	-631	0
bin	-618	0
bin	-605	0
bin	-592	0
bin	-579	0
bin	-566	0
bin	-553	0
bin	-540	0
bin	-527	0
bin	-514	0
bin	-501	0
bin	-488	0
bin	-475	0
bin	-462	0
bin	-449	0
bin	-436	0
bin	-423	0
bin	-410	0
bin	-397	0
bin	-384	0
bin	-371	0
bin	-358	0
bin	-345	0
bin	-332	0
bin	-319	0
bin	-306	0
bin	-293	0
bin	-280	0
bin	-267	0
bin	-254	0
bin	-241	0
bin	-228	0
bin	-215	0
bin	-202	0
bin	-189	0
bin	-176	0
bin	-163	0
bin	-150	0
bin	-137	0
bin	-124	0
bin	-111	0
bin	-98	0
bin	-85	0
bin	-72	0
bin	-59	0
bin	-46	0
bin	-33	0
bin	-20	0
bin	-7	5
bin	6	0
bin	19	0
bin	32	0
bin	45	0
bin	58	1
bin	71	0
bin	84	0
bin	97	0
bin	110	0
bin	123	1
bin	136	2
bin	149	0
bin	162	0
bin	175	0
bin	188	0
bin	201	0
bin	214	0
bin	227	0
bin	240	1
bin	253	0
bin	266	0
bin	279	4
bin	292	1
bin	305	0
bin	318	0
bin	331	0
bin	344	0
bin	357	0
bin	370	0
bin	383	0
bin	396	0
bin	409	0
bin	422	1
bin	435	8
bin	448	1
bin	461	0
bin	474	0
bin	487	0
bin	500	0
bin	513	0
bin	526	0
bin	539	0
bin	552	0
bin	565	0
bin	578	3
bin	591	1
bin	604	0
bin	617	0
bin	630	0
bin	643	0
bin	656	0
bin	669	0
bin	682	1
bin	695	0
bin	708	0
bin	721	1
bin	734	1
bin	747	0
bin	760	0
bin	773	0
bin	786	0
bin	799	0
bin	812	0
bin	825	0
bin	838	0
bin	851	1
bin	864	0
bin	877	2
bin	890	0
bin	903	0
bin	916	0
bin	929	0
bin	942	0
bin	955	0
bin	968	0
bin	981	0
bin	994	1
bin	1007	1
bin	1020	3
bin	1033	0
bin	1046	0
bin	1059	0
bin	1072	0
bin	1085	0
bin	1098	0
bin	1111	0
bin	1124	0
bin	1137	0
bin	1150	0
bin	1163	0
bin	1176	0
bin	1189	0
bin	1202	0
bin	1215	0
bin	1228	0
bin	1241	0
bin	1254	0
bin	1267	0
bin	1280	1
bin	1293	0
bin	1306	0
bin	1319	0
bin	1332	0
bin	1345	0
bin	1358	0
bin	1371	0
bin	1384	0
bin	1397	0
bin	1410	0
bin	1423	0
bin	1436	0
bin	1449	0
bin	1462	0
bin	1475	0
bin	1488	0
bin	1501	0
bin	1514	0
bin	1527	0
bin	1540	0
bin	1553	0
bin	1566	0
bin	1579	0
bin	1592	0
bin	1605	0
bin	1618	0
bin	1631	0
bin	1644	0
bin	1657	0
bin	1670	0
bin	1683	0
bin	1696	0
bin	1709	0
bin	1722	0
bin	1735	0
bin	1748	0
bin	1761	0
bin	1774	0
bin	1787	0
bin	1800	0
bin	1813	0
bin	1826	0
bin	1839	0
bin	1852	0
bin	1865	0
bin	1878	0
bin	1891	0
bin	1904	0
bin	1917	0
bin	1930	0
scalar scenarioOpp.node[168].mobility 	Community 	0
scalar scenarioOpp.node[182].appl 	"# Bundle Sent" 	0
scalar scenarioOpp.node[182].appl 	"# Bundle Received" 	0
scalar scenarioOpp.node[182].netw 	"# L3Sent" 	1123
scalar scenarioOpp.node[182].netw 	"# L3Received" 	1116
scalar scenarioOpp.node[182].netw 	"# of Contacts" 	278
scalar scenarioOpp.node[182].netw 	"# of InterContacts" 	163
scalar scenarioOpp.node[182].netw 	"# Bundles at L3" 	323
statistic scenarioOpp.node[182].netw 	"Histogram for max nbr repeated contact"
field count 31
field mean 5.258064516129
field stddev 21.175406713033
field sum 163
field sqrsum 14309
field min 1
field max 119
attr type  int
bin	-INF	0
bin	-58	0
bin	-56	0
bin	-54	0
bin	-52	0
bin	-50	0
bin	-48	0
bin	-46	0
bin	-44	0
bin	-42	0
bin	-40	0
bin	-38	0
bin	-36	0
bin	-34	0
bin	-32	0
bin	-30	0
bin	-28	0
bin	-26	0
bin	-24	0
bin	-22	0
bin	-20	0
bin	-18	0
bin	-16	0
bin	-14	0
bin	-12	0
bin	-10	0
bin	-8	0
bin	-6	0
bin	-4	0
bin	-2	0
bin	0	26
bin	2	3
bin	4	0
bin	6	0
bin	8	0
bin	10	1
bin	12	0
bin	14	0
bin	16	0
bin	18	0
bin	20	0
bin	22	0
bin	24	0
bin	26	0
bin	28	0
bin	30	0
bin	32	0
bin	34	0
bin	36	0
bin	38	0
bin	40	0
bin	42	0
bin	44	0
bin	46	0
bin	48	0
bin	50	0
bin	52	0
bin	54	0
bin	56	0
bin	58	0
bin	60	0
bin	62	0
bin	64	0
bin	66	0
bin	68	0
bin	70	0
bin	72	0
bin	74	0
bin	76	0
bin	78	0
bin	80	0
bin	82	0
bin	84	0
bin	86	0
bin	88	0
bin	90	0
bin	92	0
bin	94	0
bin	96	0
bin	98	0
bin	100	0
bin	102	0
bin	104	0
bin	106	0
bin	108	0
bin	110	0
bin	112	0
bin	114	0
bin	116	0
bin	118	1
bin	120	0
bin	122	0
bin	124	0
bin	126	0
bin	128	0
bin	130	0
bin	132	0
bin	134	0
bin	136	0
bin	138	0
bin	140	0
bin	142	0
bin	144	0
bin	146	0
bin	148	0
bin	150	0
bin	152	0
bin	154	0
bin	156	0
bin	158	0
bin	160	0
bin	162	0
bin	164	0
bin	166	0
bin	168	0
bin	170	0
bin	172	0
bin	174	0
bin	176	0
bin	178	0
scalar scenarioOpp.node[182].netw 	"Bars for #repeated 1" 	31
scalar scenarioOpp.node[182].netw 	"Bars for #repeated 2" 	5
scalar scenarioOpp.node[182].netw 	"Bars for #repeated 3" 	4
scalar scenarioOpp.node[182].netw 	"Bars for #repeated 4" 	2
scalar scenarioOpp.node[182].netw 	"Bars for #repeated 5" 	121
scalar scenarioOpp.node[182].netw 	"Contact CDF LQ1 #repeated 1" 	3
scalar scenarioOpp.node[182].netw 	"Contact CDF G1LQ5 #repeated 1" 	0
scalar scenarioOpp.node[182].netw 	"Contact CDF G5LQ20 #repeated 1" 	26
scalar scenarioOpp.node[182].netw 	"Contact CDF G20LQ50 #repeated 1" 	1
scalar scenarioOpp.node[182].netw 	"Contact CDF G50LQ100 #repeated 1" 	0
scalar scenarioOpp.node[182].netw 	"Contact CDF G100LQ500 #repeated 1" 	0
scalar scenarioOpp.node[182].netw 	"Contact CDF G500 #repeated 1" 	0
scalar scenarioOpp.node[182].netw 	"Contact CDF LQ1 #repeated 2" 	2
scalar scenarioOpp.node[182].netw 	"Contact CDF G1LQ5 #repeated 2" 	0
scalar scenarioOpp.node[182].netw 	"Contact CDF G5LQ20 #repeated 2" 	3
scalar scenarioOpp.node[182].netw 	"Contact CDF G20LQ50 #repeated 2" 	0
scalar scenarioOpp.node[182].netw 	"Contact CDF G50LQ100 #repeated 2" 	0
scalar scenarioOpp.node[182].netw 	"Contact CDF G100LQ500 #repeated 2" 	0
scalar scenarioOpp.node[182].netw 	"Contact CDF G500 #repeated 2" 	0
scalar scenarioOpp.node[182].netw 	"Contact CDF LQ1 #repeated 3" 	3
scalar scenarioOpp.node[182].netw 	"Contact CDF G1LQ5 #repeated 3" 	0
scalar scenarioOpp.node[182].netw 	"Contact CDF G5LQ20 #repeated 3" 	1
scalar scenarioOpp.node[182].netw 	"Contact CDF G20LQ50 #repeated 3" 	0
scalar scenarioOpp.node[182].netw 	"Contact CDF G50LQ100 #repeated 3" 	0
scalar scenarioOpp.node[182].netw 	"Contact CDF G100LQ500 #repeated 3" 	0
scalar scenarioOpp.node[182].netw 	"Contact CDF G500 #repeated 3" 	0
scalar scenarioOpp.node[182].netw 	"Contact CDF LQ1 #repeated 4" 	2
scalar scenarioOpp.node[182].netw 	"Contact CDF G1LQ5 #repeated 4" 	0
scalar scenarioOpp.node[182].netw 	"Contact CDF G5LQ20 #repeated 4" 	0
scalar scenarioOpp.node[182].netw 	"Contact CDF G20LQ50 #repeated 4" 	0
scalar scenarioOpp.node[182].netw 	"Contact CDF G50LQ100 #repeated 4" 	0
scalar scenarioOpp.node[182].netw 	"Contact CDF G100LQ500 #repeated 4" 	0
scalar scenarioOpp.node[182].netw 	"Contact CDF G500 #repeated 4" 	0
scalar scenarioOpp.node[182].netw 	"Contact CDF LQ1 #repeated 5" 	115
scalar scenarioOpp.node[182].netw 	"Contact CDF G1LQ5 #repeated 5" 	0
scalar scenarioOpp.node[182].netw 	"Contact CDF G5LQ20 #repeated 5" 	4
scalar scenarioOpp.node[182].netw 	"Contact CDF G20LQ50 #repeated 5" 	0
scalar scenarioOpp.node[182].netw 	"Contact CDF G50LQ100 #repeated 5" 	1
scalar scenarioOpp.node[182].netw 	"Contact CDF G100LQ500 #repeated 5" 	0
scalar scenarioOpp.node[182].netw 	"Contact CDF G500 #repeated 5" 	0
scalar scenarioOpp.node[182].netw 	"InterContact CDF LQ1 #repeated 1" 	5
scalar scenarioOpp.node[182].netw 	"InterContact CDF G1LQ5 #repeated 1" 	0
scalar scenarioOpp.node[182].netw 	"InterContact CDF G5LQ20 #repeated 1" 	0
scalar scenarioOpp.node[182].netw 	"InterContact CDF G20LQ50 #repeated 1" 	0
scalar scenarioOpp.node[182].netw 	"InterContact CDF G50LQ100 #repeated 1" 	0
scalar scenarioOpp.node[182].netw 	"InterContact CDF G100LQ500 #repeated 1" 	0
scalar scenarioOpp.node[182].netw 	"InterContact CDF G500 #repeated 1" 	6
scalar scenarioOpp.node[182].netw 	"InterContact CDF LQ1 #repeated 2" 	2
scalar scenarioOpp.node[182].netw 	"InterContact CDF G1LQ5 #repeated 2" 	0
scalar scenarioOpp.node[182].netw 	"InterContact CDF G5LQ20 #repeated 2" 	0
scalar scenarioOpp.node[182].netw 	"InterContact CDF G20LQ50 #repeated 2" 	0
scalar scenarioOpp.node[182].netw 	"InterContact CDF G50LQ100 #repeated 2" 	1
scalar scenarioOpp.node[182].netw 	"InterContact CDF G100LQ500 #repeated 2" 	0
scalar scenarioOpp.node[182].netw 	"InterContact CDF G500 #repeated 2" 	0
scalar scenarioOpp.node[182].netw 	"InterContact CDF LQ1 #repeated 3" 	3
scalar scenarioOpp.node[182].netw 	"InterContact CDF G1LQ5 #repeated 3" 	0
scalar scenarioOpp.node[182].netw 	"InterContact CDF G5LQ20 #repeated 3" 	0
scalar scenarioOpp.node[182].netw 	"InterContact CDF G20LQ50 #repeated 3" 	0
scalar scenarioOpp.node[182].netw 	"InterContact CDF G50LQ100 #repeated 3" 	0
scalar scenarioOpp.node[182].netw 	"InterContact CDF G100LQ500 #repeated 3" 	0
scalar scenarioOpp.node[182].netw 	"InterContact CDF G500 #repeated 3" 	0
scalar scenarioOpp.node[182].netw 	"InterContact CDF LQ1 #repeated 4" 	1
scalar scenarioOpp.node[182].netw 	"InterContact CDF G1LQ5 #repeated 4" 	0
scalar scenarioOpp.node[182].netw 	"InterContact CDF G5LQ20 #repeated 4" 	0
scalar scenarioOpp.node[182].netw 	"InterContact CDF G20LQ50 #repeated 4" 	0
scalar scenarioOpp.node[182].netw 	"InterContact CDF G50LQ100 #repeated 4" 	1
scalar scenarioOpp.node[182].netw 	"InterContact CDF G100LQ500 #repeated 4" 	0
scalar scenarioOpp.node[182].netw 	"InterContact CDF G500 #repeated 4" 	0
scalar scenarioOpp.node[182].netw 	"InterContact CDF LQ1 #repeated 5" 	118
scalar scenarioOpp.node[182].netw 	"InterContact CDF G1LQ5 #repeated 5" 	0
scalar scenarioOpp.node[182].netw 	"InterContact CDF G5LQ20 #repeated 5" 	0
scalar scenarioOpp.node[182].netw 	"InterContact CDF G20LQ50 #repeated 5" 	0
scalar scenarioOpp.node[182].netw 	"InterContact CDF G50LQ100 #repeated 5" 	2
scalar scenarioOpp.node[182].netw 	"InterContact CDF G100LQ500 #repeated 5" 	0
scalar scenarioOpp.node[182].netw 	"InterContact CDF G500 #repeated 5" 	0
statistic scenarioOpp.node[182].netw 	"Histogram for total contact duration"
field count 31
field mean 29.741935483871
field stddev 72.28829676692
field sum 922
field sqrsum 184190
field min 0
field max 391
attr type  int
bin	-INF	0
bin	-196	0
bin	-192	0
bin	-188	0
bin	-184	0
bin	-180	0
bin	-176	0
bin	-172	0
bin	-168	0
bin	-164	0
bin	-160	0
bin	-156	0
bin	-152	0
bin	-148	0
bin	-144	0
bin	-140	0
bin	-136	0
bin	-132	0
bin	-128	0
bin	-124	0
bin	-120	0
bin	-116	0
bin	-112	0
bin	-108	0
bin	-104	0
bin	-100	0
bin	-96	0
bin	-92	0
bin	-88	0
bin	-84	0
bin	-80	0
bin	-76	0
bin	-72	0
bin	-68	0
bin	-64	0
bin	-60	0
bin	-56	0
bin	-52	0
bin	-48	0
bin	-44	0
bin	-40	0
bin	-36	0
bin	-32	0
bin	-28	0
bin	-24	0
bin	-20	0
bin	-16	0
bin	-12	0
bin	-8	0
bin	-4	0
bin	0	1
bin	4	0
bin	8	20
bin	12	2
bin	16	2
bin	20	1
bin	24	1
bin	28	0
bin	32	1
bin	36	0
bin	40	0
bin	44	0
bin	48	0
bin	52	1
bin	56	0
bin	60	0
bin	64	0
bin	68	0
bin	72	0
bin	76	0
bin	80	0
bin	84	0
bin	88	0
bin	92	0
bin	96	0
bin	100	0
bin	104	0
bin	108	0
bin	112	0
bin	116	0
bin	120	0
bin	124	0
bin	128	0
bin	132	0
bin	136	0
bin	140	0
bin	144	0
bin	148	0
bin	152	1
bin	156	0
bin	160	0
bin	164	0
bin	168	0
bin	172	0
bin	176	0
bin	180	0
bin	184	0
bin	188	0
bin	192	0
bin	196	0
bin	200	0
bin	204	0
bin	208	0
bin	212	0
bin	216	0
bin	220	0
bin	224	0
bin	228	0
bin	232	0
bin	236	0
bin	240	0
bin	244	0
bin	248	0
bin	252	0
bin	256	0
bin	260	0
bin	264	0
bin	268	0
bin	272	0
bin	276	0
bin	280	0
bin	284	0
bin	288	0
bin	292	0
bin	296	0
bin	300	0
bin	304	0
bin	308	0
bin	312	0
bin	316	0
bin	320	0
bin	324	0
bin	328	0
bin	332	0
bin	336	0
bin	340	0
bin	344	0
bin	348	0
bin	352	0
bin	356	0
bin	360	0
bin	364	0
bin	368	0
bin	372	0
bin	376	0
bin	380	0
bin	384	0
bin	388	1
bin	392	0
bin	396	0
bin	400	0
bin	404	0
bin	408	0
bin	412	0
bin	416	0
bin	420	0
bin	424	0
bin	428	0
bin	432	0
bin	436	0
bin	440	0
bin	444	0
bin	448	0
bin	452	0
bin	456	0
bin	460	0
bin	464	0
bin	468	0
bin	472	0
bin	476	0
bin	480	0
bin	484	0
bin	488	0
bin	492	0
bin	496	0
bin	500	0
bin	504	0
bin	508	0
bin	512	0
bin	516	0
bin	520	0
bin	524	0
bin	528	0
bin	532	0
bin	536	0
bin	540	0
bin	544	0
bin	548	0
bin	552	0
bin	556	0
bin	560	0
bin	564	0
bin	568	0
bin	572	0
bin	576	0
bin	580	0
bin	584	0
bin	588	0
statistic scenarioOpp.node[182].netw 	"Histogram for total interContact duration"
field count 31
field mean 413.32258064516
field stddev 187.46935520182
field sum 12813
field sqrsum 6350245
field min 1
field max 738
attr type  int
bin	-INF	0
bin	-370	0
bin	-362	0
bin	-354	0
bin	-346	0
bin	-338	0
bin	-330	0
bin	-322	0
bin	-314	0
bin	-306	0
bin	-298	0
bin	-290	0
bin	-282	0
bin	-274	0
bin	-266	0
bin	-258	0
bin	-250	0
bin	-242	0
bin	-234	0
bin	-226	0
bin	-218	0
bin	-210	0
bin	-202	0
bin	-194	0
bin	-186	0
bin	-178	0
bin	-170	0
bin	-162	0
bin	-154	0
bin	-146	0
bin	-138	0
bin	-130	0
bin	-122	0
bin	-114	0
bin	-106	0
bin	-98	0
bin	-90	0
bin	-82	0
bin	-74	0
bin	-66	0
bin	-58	0
bin	-50	0
bin	-42	0
bin	-34	0
bin	-26	0
bin	-18	0
bin	-10	0
bin	-2	2
bin	6	0
bin	14	0
bin	22	0
bin	30	0
bin	38	0
bin	46	0
bin	54	0
bin	62	0
bin	70	0
bin	78	0
bin	86	0
bin	94	0
bin	102	0
bin	110	0
bin	118	0
bin	126	0
bin	134	1
bin	142	0
bin	150	0
bin	158	0
bin	166	0
bin	174	0
bin	182	0
bin	190	0
bin	198	0
bin	206	0
bin	214	0
bin	222	0
bin	230	0
bin	238	0
bin	246	0
bin	254	0
bin	262	0
bin	270	1
bin	278	3
bin	286	2
bin	294	2
bin	302	0
bin	310	0
bin	318	0
bin	326	0
bin	334	0
bin	342	0
bin	350	0
bin	358	0
bin	366	0
bin	374	0
bin	382	0
bin	390	1
bin	398	0
bin	406	0
bin	414	0
bin	422	0
bin	430	5
bin	438	6
bin	446	1
bin	454	0
bin	462	0
bin	470	0
bin	478	0
bin	486	0
bin	494	0
bin	502	0
bin	510	0
bin	518	0
bin	526	0
bin	534	0
bin	542	0
bin	550	0
bin	558	0
bin	566	0
bin	574	0
bin	582	1
bin	590	2
bin	598	0
bin	606	0
bin	614	0
bin	622	0
bin	630	0
bin	638	0
bin	646	0
bin	654	0
bin	662	0
bin	670	0
bin	678	0
bin	686	0
bin	694	0
bin	702	0
bin	710	0
bin	718	0
bin	726	2
bin	734	2
bin	742	0
bin	750	0
bin	758	0
bin	766	0
bin	774	0
bin	782	0
bin	790	0
bin	798	0
bin	806	0
bin	814	0
bin	822	0
bin	830	0
bin	838	0
bin	846	0
bin	854	0
bin	862	0
bin	870	0
bin	878	0
bin	886	0
bin	894	0
bin	902	0
bin	910	0
bin	918	0
bin	926	0
bin	934	0
bin	942	0
bin	950	0
bin	958	0
bin	966	0
bin	974	0
bin	982	0
bin	990	0
bin	998	0
bin	1006	0
bin	1014	0
bin	1022	0
bin	1030	0
bin	1038	0
bin	1046	0
bin	1054	0
bin	1062	0
bin	1070	0
bin	1078	0
bin	1086	0
bin	1094	0
bin	1102	0
bin	1110	0
scalar scenarioOpp.node[182].mobility 	Community 	0
scalar scenarioOpp.node[196].appl 	"# Bundle Sent" 	0
scalar scenarioOpp.node[196].appl 	"# Bundle Received" 	0
scalar scenarioOpp.node[196].netw 	"# L3Sent" 	1555
scalar scenarioOpp.node[196].netw 	"# L3Received" 	1490
scalar scenarioOpp.node[196].netw 	"# of Contacts" 	524
scalar scenarioOpp.node[196].netw 	"# of InterContacts" 	415
scalar scenarioOpp.node[196].netw 	"# Bundles at L3" 	282
statistic scenarioOpp.node[196].netw 	"Histogram for max nbr repeated contact"
field count 33
field mean 12.575757575758
field stddev 37.24499152825
field sum 415
field sqrsum 49609
field min 1
field max 194
attr type  int
bin	-INF	0
bin	-96	0
bin	-94	0
bin	-92	0
bin	-90	0
bin	-88	0
bin	-86	0
bin	-84	0
bin	-82	0
bin	-80	0
bin	-78	0
bin	-76	0
bin	-74	0
bin	-72	0
bin	-70	0
bin	-68	0
bin	-66	0
bin	-64	0
bin	-62	0
bin	-60	0
bin	-58	0
bin	-56	0
bin	-54	0
bin	-52	0
bin	-50	0
bin	-48	0
bin	-46	0
bin	-44	0
bin	-42	0
bin	-40	0
bin	-38	0
bin	-36	0
bin	-34	0
bin	-32	0
bin	-30	0
bin	-28	0
bin	-26	0
bin	-24	0
bin	-22	0
bin	-20	0
bin	-18	0
bin	-16	0
bin	-14	0
bin	-12	0
bin	-10	0
bin	-8	0
bin	-6	0
bin	-4	0
bin	-2	0
bin	0	27
bin	2	2
bin	4	0
bin	6	0
bin	8	0
bin	10	0
bin	12	0
bin	14	0
bin	16	0
bin	18	0
bin	20	0
bin	22	0
bin	24	0
bin	26	0
bin	28	0
bin	30	0
bin	32	0
bin	34	0
bin	36	0
bin	38	0
bin	40	0
bin	42	0
bin	44	0
bin	46	0
bin	48	0
bin	50	0
bin	52	0
bin	54	0
bin	56	0
bin	58	0
bin	60	1
bin	62	1
bin	64	0
bin	66	1
bin	68	0
bin	70	0
bin	72	0
bin	74	0
bin	76	0
bin	78	0
bin	80	0
bin	82	0
bin	84	0
bin	86	0
bin	88	0
bin	90	0
bin	92	0
bin	94	0
bin	96	0
bin	98	0
bin	100	0
bin	102	0
bin	104	0
bin	106	0
bin	108	0
bin	110	0
bin	112	0
bin	114	0
bin	116	0
bin	118	0
bin	120	0
bin	122	0
bin	124	0
bin	126	0
bin	128	0
bin	130	0
bin	132	0
bin	134	0
bin	136	0
bin	138	0
bin	140	0
bin	142	0
bin	144	0
bin	146	0
bin	148	0
bin	150	0
bin	152	0
bin	154	0
bin	156	0
bin	158	0
bin	160	0
bin	162	0
bin	164	0
bin	166	0
bin	168	0
bin	170	0
bin	172	0
bin	174	0
bin	176	0
bin	178	0
bin	180	0
bin	182	0
bin	184	0
bin	186	0
bin	188	0
bin	190	0
bin	192	0
bin	194	1
bin	196	0
bin	198	0
bin	200	0
bin	202	0
bin	204	0
bin	206	0
bin	208	0
bin	210	0
bin	212	0
bin	214	0
bin	216	0
bin	218	0
bin	220	0
bin	222	0
bin	224	0
bin	226	0
bin	228	0
bin	230	0
bin	232	0
bin	234	0
bin	236	0
bin	238	0
bin	240	0
bin	242	0
bin	244	0
bin	246	0
bin	248	0
bin	250	0
bin	252	0
bin	254	0
bin	256	0
bin	258	0
bin	260	0
bin	262	0
bin	264	0
bin	266	0
bin	268	0
bin	270	0
bin	272	0
bin	274	0
bin	276	0
bin	278	0
bin	280	0
bin	282	0
bin	284	0
bin	286	0
bin	288	0
bin	290	0
bin	292	0
scalar scenarioOpp.node[196].netw 	"Bars for #repeated 1" 	33
scalar scenarioOpp.node[196].netw 	"Bars for #repeated 2" 	6
scalar scenarioOpp.node[196].netw 	"Bars for #repeated 3" 	5
scalar scenarioOpp.node[196].netw 	"Bars for #repeated 4" 	4
scalar scenarioOpp.node[196].netw 	"Bars for #repeated 5" 	367
scalar scenarioOpp.node[196].netw 	"Contact CDF LQ1 #repeated 1" 	3
scalar scenarioOpp.node[196].netw 	"Contact CDF G1LQ5 #repeated 1" 	0
scalar scenarioOpp.node[196].netw 	"Contact CDF G5LQ20 #repeated 1" 	27
scalar scenarioOpp.node[196].netw 	"Contact CDF G20LQ50 #repeated 1" 	1
scalar scenarioOpp.node[196].netw 	"Contact CDF G50LQ100 #repeated 1" 	0
scalar scenarioOpp.node[196].netw 	"Contact CDF G100LQ500 #repeated 1" 	0
scalar scenarioOpp.node[196].netw 	"Contact CDF G500 #repeated 1" 	0
scalar scenarioOpp.node[196].netw 	"Contact CDF LQ1 #repeated 2" 	4
scalar scenarioOpp.node[196].netw 	"Contact CDF G1LQ5 #repeated 2" 	0
scalar scenarioOpp.node[196].netw 	"Contact CDF G5LQ20 #repeated 2" 	2
scalar scenarioOpp.node[196].netw 	"Contact CDF G20LQ50 #repeated 2" 	0
scalar scenarioOpp.node[196].netw 	"Contact CDF G50LQ100 #repeated 2" 	0
scalar scenarioOpp.node[196].netw 	"Contact CDF G100LQ500 #repeated 2" 	0
scalar scenarioOpp.node[196].netw 	"Contact CDF G500 #repeated 2" 	0
scalar scenarioOpp.node[196].netw 	"Contact CDF LQ1 #repeated 3" 	4
scalar scenarioOpp.node[196].netw 	"Contact CDF G1LQ5 #repeated 3" 	0
scalar scenarioOpp.node[196].netw 	"Contact CDF G5LQ20 #repeated 3" 	1
scalar scenarioOpp.node[196].netw 	"Contact CDF G20LQ50 #repeated 3" 	0
scalar scenarioOpp.node[196].netw 	"Contact CDF G50LQ100 #repeated 3" 	0
scalar scenarioOpp.node[196].netw 	"Contact CDF G100LQ500 #repeated 3" 	0
scalar scenarioOpp.node[196].netw 	"Contact CDF G500 #repeated 3" 	0
scalar scenarioOpp.node[196].netw 	"Contact CDF LQ1 #repeated 4" 	3
scalar scenarioOpp.node[196].netw 	"Contact CDF G1LQ5 #repeated 4" 	0
scalar scenarioOpp.node[196].netw 	"Contact CDF G5LQ20 #repeated 4" 	1
scalar scenarioOpp.node[196].netw 	"Contact CDF G20LQ50 #repeated 4" 	0
scalar scenarioOpp.node[196].netw 	"Contact CDF G50LQ100 #repeated 4" 	0
scalar scenarioOpp.node[196].netw 	"Contact CDF G100LQ500 #repeated 4" 	0
scalar scenarioOpp.node[196].netw 	"Contact CDF G500 #repeated 4" 	0
scalar scenarioOpp.node[196].netw 	"Contact CDF LQ1 #repeated 5" 	362
scalar scenarioOpp.node[196].netw 	"Contact CDF G1LQ5 #repeated 5" 	0
scalar scenarioOpp.node[196].netw 	"Contact CDF G5LQ20 #repeated 5" 	2
scalar scenarioOpp.node[196].netw 	"Contact CDF G20LQ50 #repeated 5" 	0
scalar scenarioOpp.node[196].netw 	"Contact CDF G50LQ100 #repeated 5" 	1
scalar scenarioOpp.node[196].netw 	"Contact CDF G100LQ500 #repeated 5" 	0
scalar scenarioOpp.node[196].netw 	"Contact CDF G500 #repeated 5" 	0
scalar scenarioOpp.node[196].netw 	"InterContact CDF LQ1 #repeated 1" 	4
scalar scenarioOpp.node[196].netw 	"InterContact CDF G1LQ5 #repeated 1" 	0
scalar scenarioOpp.node[196].netw 	"InterContact CDF G5LQ20 #repeated 1" 	0
scalar scenarioOpp.node[196].netw 	"InterContact CDF G20LQ50 #repeated 1" 	0
scalar scenarioOpp.node[196].netw 	"InterContact CDF G50LQ100 #repeated 1" 	0
scalar scenarioOpp.node[196].netw 	"InterContact CDF G100LQ500 #repeated 1" 	0
scalar scenarioOpp.node[196].netw 	"InterContact CDF G500 #repeated 1" 	3
scalar scenarioOpp.node[196].netw 	"InterContact CDF LQ1 #repeated 2" 	4
scalar scenarioOpp.node[196].netw 	"InterContact CDF G1LQ5 #repeated 2" 	0
scalar scenarioOpp.node[196].netw 	"InterContact CDF G5LQ20 #repeated 2" 	0
scalar scenarioOpp.node[196].netw 	"InterContact CDF G20LQ50 #repeated 2" 	0
scalar scenarioOpp.node[196].netw 	"InterContact CDF G50LQ100 #repeated 2" 	0
scalar scenarioOpp.node[196].netw 	"InterContact CDF G100LQ500 #repeated 2" 	0
scalar scenarioOpp.node[196].netw 	"InterContact CDF G500 #repeated 2" 	0
scalar scenarioOpp.node[196].netw 	"InterContact CDF LQ1 #repeated 3" 	3
scalar scenarioOpp.node[196].netw 	"InterContact CDF G1LQ5 #repeated 3" 	0
scalar scenarioOpp.node[196].netw 	"InterContact CDF G5LQ20 #repeated 3" 	0
scalar scenarioOpp.node[196].netw 	"InterContact CDF G20LQ50 #repeated 3" 	0
scalar scenarioOpp.node[196].netw 	"InterContact CDF G50LQ100 #repeated 3" 	1
scalar scenarioOpp.node[196].netw 	"InterContact CDF G100LQ500 #repeated 3" 	0
scalar scenarioOpp.node[196].netw 	"InterContact CDF G500 #repeated 3" 	0
scalar scenarioOpp.node[196].netw 	"InterContact CDF LQ1 #repeated 4" 	4
scalar scenarioOpp.node[196].netw 	"InterContact CDF G1LQ5 #repeated 4" 	0
scalar scenarioOpp.node[196].netw 	"InterContact CDF G5LQ20 #repeated 4" 	0
scalar scenarioOpp.node[196].netw 	"InterContact CDF G20LQ50 #repeated 4" 	0
scalar scenarioOpp.node[196].netw 	"InterContact CDF G50LQ100 #repeated 4" 	0
scalar scenarioOpp.node[196].netw 	"InterContact CDF G100LQ500 #repeated 4" 	0
scalar scenarioOpp.node[196].netw 	"InterContact CDF G500 #repeated 4" 	0
scalar scenarioOpp.node[196].netw 	"InterContact CDF LQ1 #repeated 5" 	367
scalar scenarioOpp.node[196].netw 	"InterContact CDF G1LQ5 #repeated 5" 	0
scalar scenarioOpp.node[196].netw 	"InterContact CDF G5LQ20 #repeated 5" 	0
scalar scenarioOpp.node[196].netw 	"InterContact CDF G20LQ50 #repeated 5" 	0
scalar scenarioOpp.node[196].netw 	"InterContact CDF G50LQ100 #repeated 5" 	0
scalar scenarioOpp.node[196].netw 	"InterContact CDF G100LQ500 #repeated 5" 	0
scalar scenarioOpp.node[196].netw 	"InterContact CDF G500 #repeated 5" 	0
statistic scenarioOpp.node[196].netw 	"Histogram for total contact duration"
field count 31
field mean 34.129032258065
field stddev 69.945570236427
field sum 1058
field sqrsum 182880
field min 9
field max 330
attr type  int
bin	-INF	0
bin	-152	0
bin	-148	0
bin	-144	0
bin	-140	0
bin	-136	0
bin	-132	0
bin	-128	0
bin	-124	0
bin	-120	0
bin	-116	0
bin	-112	0
bin	-108	0
bin	-104	0
bin	-100	0
bin	-96	0
bin	-92	0
bin	-88	0
bin	-84	0
bin	-80	0
bin	-76	0
bin	-72	0
bin	-68	0
bin	-64	0
bin	-60	0
bin	-56	0
bin	-52	0
bin	-48	0
bin	-44	0
bin	-40	0
bin	-36	0
bin	-32	0
bin	-28	0
bin	-24	0
bin	-20	0
bin	-16	0
bin	-12	0
bin	-8	0
bin	-4	0
bin	0	0
bin	4	0
bin	8	18
bin	12	3
bin	16	3
bin	20	2
bin	24	1
bin	28	0
bin	32	1
bin	36	0
bin	40	0
bin	44	0
bin	48	0
bin	52	0
bin	56	0
bin	60	0
bin	64	0
bin	68	0
bin	72	0
bin	76	0
bin	80	0
bin	84	0
bin	88	0
bin	92	0
bin	96	0
bin	100	0
bin	104	0
bin	108	0
bin	112	0
bin	116	0
bin	120	0
bin	124	0
bin	128	0
bin	132	0
bin	136	0
bin	140	0
bin	144	0
bin	148	0
bin	152	0
bin	156	0
bin	160	0
bin	164	1
bin	168	0
bin	172	0
bin	176	0
bin	180	0
bin	184	0
bin	188	0
bin	192	0
bin	196	0
bin	200	1
bin	204	0
bin	208	0
bin	212	0
bin	216	0
bin	220	0
bin	224	0
bin	228	0
bin	232	0
bin	236	0
bin	240	0
bin	244	0
bin	248	0
bin	252	0
bin	256	0
bin	260	0
bin	264	0
bin	268	0
bin	272	0
bin	276	0
bin	280	0
bin	284	0
bin	288	0
bin	292	0
bin	296	0
bin	300	0
bin	304	0
bin	308	0
bin	312	0
bin	316	0
bin	320	0
bin	324	0
bin	328	1
bin	332	0
bin	336	0
bin	340	0
bin	344	0
bin	348	0
bin	352	0
bin	356	0
bin	360	0
bin	364	0
bin	368	0
bin	372	0
bin	376	0
bin	380	0
bin	384	0
bin	388	0
bin	392	0
bin	396	0
bin	400	0
bin	404	0
bin	408	0
bin	412	0
bin	416	0
bin	420	0
bin	424	0
bin	428	0
bin	432	0
bin	436	0
bin	440	0
bin	444	0
bin	448	0
bin	452	0
bin	456	0
bin	460	0
bin	464	0
bin	468	0
bin	472	0
bin	476	0
bin	480	0
bin	484	0
bin	488	0
bin	492	0
statistic scenarioOpp.node[196].netw 	"Histogram for total interContact duration"
field count 33
field mean 350.9696969697
field stddev 189.8628591985
field sum 11582
field sqrsum 5218464
field min 0
field max 879
attr type  int
bin	-INF	0
bin	-442	0
bin	-433	0
bin	-424	0
bin	-415	0
bin	-406	0
bin	-397	0
bin	-388	0
bin	-379	0
bin	-370	0
bin	-361	0
bin	-352	0
bin	-343	0
bin	-334	0
bin	-325	0
bin	-316	0
bin	-307	0
bin	-298	0
bin	-289	0
bin	-280	0
bin	-271	0
bin	-262	0
bin	-253	0
bin	-244	0
bin	-235	0
bin	-226	0
bin	-217	0
bin	-208	0
bin	-199	0
bin	-190	0
bin	-181	0
bin	-172	0
bin	-163	0
bin	-154	0
bin	-145	0
bin	-136	0
bin	-127	0
bin	-118	0
bin	-109	0
bin	-100	0
bin	-91	0
bin	-82	0
bin	-73	0
bin	-64	0
bin	-55	0
bin	-46	0
bin	-37	0
bin	-28	0
bin	-19	0
bin	-10	0
bin	-1	2
bin	8	0
bin	17	0
bin	26	0
bin	35	0
bin	44	0
bin	53	1
bin	62	0
bin	71	0
bin	80	0
bin	89	0
bin	98	0
bin	107	0
bin	116	0
bin	125	1
bin	134	2
bin	143	1
bin	152	0
bin	161	0
bin	170	0
bin	179	0
bin	188	0
bin	197	0
bin	206	0
bin	215	0
bin	224	0
bin	233	0
bin	242	0
bin	251	0
bin	260	0
bin	269	1
bin	278	2
bin	287	5
bin	296	1
bin	305	0
bin	314	0
bin	323	0
bin	332	0
bin	341	0
bin	350	0
bin	359	0
bin	368	0
bin	377	0
bin	386	0
bin	395	1
bin	404	0
bin	413	0
bin	422	1
bin	431	10
bin	440	1
bin	449	0
bin	458	0
bin	467	0
bin	476	0
bin	485	0
bin	494	0
bin	503	0
bin	512	0
bin	521	0
bin	530	0
bin	539	0
bin	548	0
bin	557	0
bin	566	0
bin	575	2
bin	584	0
bin	593	0
bin	602	0
bin	611	0
bin	620	0
bin	629	0
bin	638	0
bin	647	0
bin	656	0
bin	665	0
bin	674	0
bin	683	0
bin	692	0
bin	701	0
bin	710	1
bin	719	0
bin	728	0
bin	737	0
bin	746	0
bin	755	0
bin	764	0
bin	773	0
bin	782	0
bin	791	0
bin	800	0
bin	809	0
bin	818	0
bin	827	0
bin	836	0
bin	845	0
bin	854	0
bin	863	0
bin	872	1
bin	881	0
bin	890	0
bin	899	0
bin	908	0
bin	917	0
bin	926	0
bin	935	0
bin	944	0
bin	953	0
bin	962	0
bin	971	0
bin	980	0
bin	989	0
bin	998	0
bin	1007	0
bin	1016	0
bin	1025	0
bin	1034	0
bin	1043	0
bin	1052	0
bin	1061	0
bin	1070	0
bin	1079	0
bin	1088	0
bin	1097	0
bin	1106	0
bin	1115	0
bin	1124	0
bin	1133	0
bin	1142	0
bin	1151	0
bin	1160	0
bin	1169	0
bin	1178	0
bin	1187	0
bin	1196	0
bin	1205	0
bin	1214	0
bin	1223	0
bin	1232	0
bin	1241	0
bin	1250	0
bin	1259	0
bin	1268	0
bin	1277	0
bin	1286	0
bin	1295	0
bin	1304	0
bin	1313	0
bin	1322	0
scalar scenarioOpp.node[196].mobility 	Community 	0
scalar scenarioOpp.node[210].appl 	"# Bundle Sent" 	0
scalar scenarioOpp.node[210].appl 	"# Bundle Received" 	0
scalar scenarioOpp.node[210].netw 	"# L3Sent" 	670
scalar scenarioOpp.node[210].netw 	"# L3Received" 	502
scalar scenarioOpp.node[210].netw 	"# of Contacts" 	389
[...]
bin	3809	0
bin	3838	0
bin	3867	0
bin	3896	0
bin	3925	0
bin	3954	0
bin	3983	0
bin	4012	0
bin	4041	0
bin	4070	0
bin	4099	0
bin	4128	0
bin	4157	0
bin	4186	0
bin	4215	0
bin	4244	0
bin	4273	0
bin	4302	0
bin	4331	0
bin	4360	0
bin	4389	0
bin	4418	0
bin	4447	0
bin	4476	0
bin	4505	0
bin	4534	0
scalar scenarioOpp.VPA[13].appl 	"# Bundle Sent" 	72
scalar scenarioOpp.VPA[13].appl 	"# Bundle Received" 	77
scalar scenarioOpp.VPA[13].appl 	"# Unique Bundle Received" 	77
statistic scenarioOpp.VPA[13].appl 	"Delays for 1st Copy"
field count 77
field mean 626.03742206546
field stddev 300.05136510683
field sum 48204.881499041
field sqrsum 37020402.194018
field min 154.36389956405
field max 1381.2623131431
bin	-INF	0
bin	-459.08530722549	0
bin	-377.29207965355	0
bin	-295.49885208161	0
bin	-213.70562450967	0
bin	-131.91239693774	0
bin	-50.119169365798	0
bin	31.67405820614	0
bin	113.46728577808	4
bin	195.26051335002	4
bin	277.05374092196	7
bin	358.84696849389	6
bin	440.64019606583	10
bin	522.43342363777	9
bin	604.22665120971	12
bin	686.01987878165	3
bin	767.81310635359	5
bin	849.60633392552	6
bin	931.39956149746	2
bin	1013.1927890694	2
bin	1094.9860166413	0
bin	1176.7792442133	3
bin	1258.5724717852	2
bin	1340.3656993572	2
bin	1422.1589269291	0
bin	1503.952154501	0
bin	1585.745382073	0
bin	1667.5386096449	0
bin	1749.3318372168	0
bin	1831.1250647888	0
bin	1912.9182923607	0
bin	1994.7115199327	0
statistic scenarioOpp.VPA[13].appl 	"HopCount for 1st Copy"
field count 77
field mean 3.5974025974026
field stddev 1.3789750222895
field sum 277
field sqrsum 1141
field min 2
field max 7
attr type  int
bin	-INF	0
bin	-1	0
bin	0	0
bin	1	0
bin	2	18
bin	3	22
bin	4	23
bin	5	6
bin	6	3
bin	7	5
bin	8	0
bin	9	0
bin	10	0
scalar scenarioOpp.VPA[13].netw 	"# L3Sent" 	1499
scalar scenarioOpp.VPA[13].netw 	"# L3Received" 	1220
scalar scenarioOpp.VPA[13].netw 	"# of Contacts" 	211
scalar scenarioOpp.VPA[13].netw 	"# of InterContacts" 	110
scalar scenarioOpp.VPA[13].netw 	"# Bundles at L3" 	603
statistic scenarioOpp.VPA[13].netw 	"Histogram for max nbr repeated contact"
field count 54
field mean 2.037037037037
field stddev 1.4916492450642
field sum 110
field sqrsum 342
field min 1
field max 7
attr type  int
bin	-INF	0
bin	-2	0
bin	-1	0
bin	0	0
bin	1	31
bin	2	7
bin	3	5
bin	4	8
bin	5	1
bin	6	1
bin	7	1
bin	8	0
bin	9	0
bin	10	0
scalar scenarioOpp.VPA[13].netw 	"Bars for #repeated 1" 	54
scalar scenarioOpp.VPA[13].netw 	"Bars for #repeated 2" 	23
scalar scenarioOpp.VPA[13].netw 	"Bars for #repeated 3" 	16
scalar scenarioOpp.VPA[13].netw 	"Bars for #repeated 4" 	11
scalar scenarioOpp.VPA[13].netw 	"Bars for #repeated 5" 	6
scalar scenarioOpp.VPA[13].netw 	"Contact CDF LQ1 #repeated 1" 	0
scalar scenarioOpp.VPA[13].netw 	"Contact CDF G1LQ5 #repeated 1" 	0
scalar scenarioOpp.VPA[13].netw 	"Contact CDF G5LQ20 #repeated 1" 	45
scalar scenarioOpp.VPA[13].netw 	"Contact CDF G20LQ50 #repeated 1" 	7
scalar scenarioOpp.VPA[13].netw 	"Contact CDF G50LQ100 #repeated 1" 	0
scalar scenarioOpp.VPA[13].netw 	"Contact CDF G100LQ500 #repeated 1" 	0
scalar scenarioOpp.VPA[13].netw 	"Contact CDF G500 #repeated 1" 	0
scalar scenarioOpp.VPA[13].netw 	"Contact CDF LQ1 #repeated 2" 	0
scalar scenarioOpp.VPA[13].netw 	"Contact CDF G1LQ5 #repeated 2" 	0
scalar scenarioOpp.VPA[13].netw 	"Contact CDF G5LQ20 #repeated 2" 	22
scalar scenarioOpp.VPA[13].netw 	"Contact CDF G20LQ50 #repeated 2" 	1
scalar scenarioOpp.VPA[13].netw 	"Contact CDF G50LQ100 #repeated 2" 	0
scalar scenarioOpp.VPA[13].netw 	"Contact CDF G100LQ500 #repeated 2" 	0
scalar scenarioOpp.VPA[13].netw 	"Contact CDF G500 #repeated 2" 	0
scalar scenarioOpp.VPA[13].netw 	"Contact CDF LQ1 #repeated 3" 	0
scalar scenarioOpp.VPA[13].netw 	"Contact CDF G1LQ5 #repeated 3" 	0
scalar scenarioOpp.VPA[13].netw 	"Contact CDF G5LQ20 #repeated 3" 	11
scalar scenarioOpp.VPA[13].netw 	"Contact CDF G20LQ50 #repeated 3" 	5
scalar scenarioOpp.VPA[13].netw 	"Contact CDF G50LQ100 #repeated 3" 	0
scalar scenarioOpp.VPA[13].netw 	"Contact CDF G100LQ500 #repeated 3" 	0
scalar scenarioOpp.VPA[13].netw 	"Contact CDF G500 #repeated 3" 	0
scalar scenarioOpp.VPA[13].netw 	"Contact CDF LQ1 #repeated 4" 	0
scalar scenarioOpp.VPA[13].netw 	"Contact CDF G1LQ5 #repeated 4" 	0
scalar scenarioOpp.VPA[13].netw 	"Contact CDF G5LQ20 #repeated 4" 	8
scalar scenarioOpp.VPA[13].netw 	"Contact CDF G20LQ50 #repeated 4" 	3
scalar scenarioOpp.VPA[13].netw 	"Contact CDF G50LQ100 #repeated 4" 	0
scalar scenarioOpp.VPA[13].netw 	"Contact CDF G100LQ500 #repeated 4" 	0
scalar scenarioOpp.VPA[13].netw 	"Contact CDF G500 #repeated 4" 	0
scalar scenarioOpp.VPA[13].netw 	"Contact CDF LQ1 #repeated 5" 	0
scalar scenarioOpp.VPA[13].netw 	"Contact CDF G1LQ5 #repeated 5" 	0
scalar scenarioOpp.VPA[13].netw 	"Contact CDF G5LQ20 #repeated 5" 	3
scalar scenarioOpp.VPA[13].netw 	"Contact CDF G20LQ50 #repeated 5" 	2
scalar scenarioOpp.VPA[13].netw 	"Contact CDF G50LQ100 #repeated 5" 	0
scalar scenarioOpp.VPA[13].netw 	"Contact CDF G100LQ500 #repeated 5" 	0
scalar scenarioOpp.VPA[13].netw 	"Contact CDF G500 #repeated 5" 	0
scalar scenarioOpp.VPA[13].netw 	"InterContact CDF LQ1 #repeated 1" 	0
scalar scenarioOpp.VPA[13].netw 	"InterContact CDF G1LQ5 #repeated 1" 	0
scalar scenarioOpp.VPA[13].netw 	"InterContact CDF G5LQ20 #repeated 1" 	0
scalar scenarioOpp.VPA[13].netw 	"InterContact CDF G20LQ50 #repeated 1" 	0
scalar scenarioOpp.VPA[13].netw 	"InterContact CDF G50LQ100 #repeated 1" 	0
scalar scenarioOpp.VPA[13].netw 	"InterContact CDF G100LQ500 #repeated 1" 	0
scalar scenarioOpp.VPA[13].netw 	"InterContact CDF G500 #repeated 1" 	32
scalar scenarioOpp.VPA[13].netw 	"InterContact CDF LQ1 #repeated 2" 	0
scalar scenarioOpp.VPA[13].netw 	"InterContact CDF G1LQ5 #repeated 2" 	0
scalar scenarioOpp.VPA[13].netw 	"InterContact CDF G5LQ20 #repeated 2" 	0
scalar scenarioOpp.VPA[13].netw 	"InterContact CDF G20LQ50 #repeated 2" 	0
scalar scenarioOpp.VPA[13].netw 	"InterContact CDF G50LQ100 #repeated 2" 	0
scalar scenarioOpp.VPA[13].netw 	"InterContact CDF G100LQ500 #repeated 2" 	0
scalar scenarioOpp.VPA[13].netw 	"InterContact CDF G500 #repeated 2" 	11
scalar scenarioOpp.VPA[13].netw 	"InterContact CDF LQ1 #repeated 3" 	0
scalar scenarioOpp.VPA[13].netw 	"InterContact CDF G1LQ5 #repeated 3" 	0
scalar scenarioOpp.VPA[13].netw 	"InterContact CDF G5LQ20 #repeated 3" 	0
scalar scenarioOpp.VPA[13].netw 	"InterContact CDF G20LQ50 #repeated 3" 	0
scalar scenarioOpp.VPA[13].netw 	"InterContact CDF G50LQ100 #repeated 3" 	0
scalar scenarioOpp.VPA[13].netw 	"InterContact CDF G100LQ500 #repeated 3" 	0
scalar scenarioOpp.VPA[13].netw 	"InterContact CDF G500 #repeated 3" 	11
scalar scenarioOpp.VPA[13].netw 	"InterContact CDF LQ1 #repeated 4" 	0
scalar scenarioOpp.VPA[13].netw 	"InterContact CDF G1LQ5 #repeated 4" 	0
scalar scenarioOpp.VPA[13].netw 	"InterContact CDF G5LQ20 #repeated 4" 	0
scalar scenarioOpp.VPA[13].netw 	"InterContact CDF G20LQ50 #repeated 4" 	0
scalar scenarioOpp.VPA[13].netw 	"InterContact CDF G50LQ100 #repeated 4" 	0
scalar scenarioOpp.VPA[13].netw 	"InterContact CDF G100LQ500 #repeated 4" 	0
scalar scenarioOpp.VPA[13].netw 	"InterContact CDF G500 #repeated 4" 	6
scalar scenarioOpp.VPA[13].netw 	"InterContact CDF LQ1 #repeated 5" 	0
scalar scenarioOpp.VPA[13].netw 	"InterContact CDF G1LQ5 #repeated 5" 	0
scalar scenarioOpp.VPA[13].netw 	"InterContact CDF G5LQ20 #repeated 5" 	0
scalar scenarioOpp.VPA[13].netw 	"InterContact CDF G20LQ50 #repeated 5" 	0
scalar scenarioOpp.VPA[13].netw 	"InterContact CDF G50LQ100 #repeated 5" 	0
scalar scenarioOpp.VPA[13].netw 	"InterContact CDF G100LQ500 #repeated 5" 	0
scalar scenarioOpp.VPA[13].netw 	"InterContact CDF G500 #repeated 5" 	2
statistic scenarioOpp.VPA[13].netw 	"Histogram for total contact duration"
field count 52
field mean 42.711538461538
field stddev 30.705007919104
field sum 2221
field sqrsum 142945
field min 20
field max 145
attr type  int
bin	-INF	0
bin	-43	0
bin	-41	0
bin	-39	0
bin	-37	0
bin	-35	0
bin	-33	0
bin	-31	0
bin	-29	0
bin	-27	0
bin	-25	0
bin	-23	0
bin	-21	0
bin	-19	0
bin	-17	0
bin	-15	0
bin	-13	0
bin	-11	0
bin	-9	0
bin	-7	0
bin	-5	0
bin	-3	0
bin	-1	0
bin	1	0
bin	3	0
bin	5	0
bin	7	0
bin	9	0
bin	11	0
bin	13	0
bin	15	0
bin	17	0
bin	19	24
bin	21	1
bin	23	0
bin	25	1
bin	27	2
bin	29	1
bin	31	0
bin	33	0
bin	35	0
bin	37	1
bin	39	6
bin	41	0
bin	43	0
bin	45	0
bin	47	0
bin	49	0
bin	51	0
bin	53	0
bin	55	0
bin	57	0
bin	59	3
bin	61	1
bin	63	1
bin	65	0
bin	67	0
bin	69	0
bin	71	0
bin	73	0
bin	75	0
bin	77	1
bin	79	2
bin	81	1
bin	83	1
bin	85	1
bin	87	1
bin	89	1
bin	91	0
bin	93	0
bin	95	0
bin	97	0
bin	99	1
bin	101	0
bin	103	0
bin	105	0
bin	107	0
bin	109	0
bin	111	0
bin	113	0
bin	115	0
bin	117	1
bin	119	0
bin	121	0
bin	123	0
bin	125	0
bin	127	0
bin	129	0
bin	131	0
bin	133	0
bin	135	0
bin	137	0
bin	139	0
bin	141	0
bin	143	0
bin	145	1
bin	147	0
bin	149	0
bin	151	0
bin	153	0
bin	155	0
bin	157	0
bin	159	0
bin	161	0
bin	163	0
bin	165	0
bin	167	0
bin	169	0
bin	171	0
bin	173	0
bin	175	0
bin	177	0
bin	179	0
bin	181	0
bin	183	0
bin	185	0
bin	187	0
bin	189	0
bin	191	0
bin	193	0
bin	195	0
bin	197	0
bin	199	0
bin	201	0
bin	203	0
bin	205	0
bin	207	0
bin	209	0
statistic scenarioOpp.VPA[13].netw 	"Histogram for total interContact duration"
field count 54
field mean 1169.1666666667
field stddev 947.76706297506
field sum 63135
field sqrsum 121423245
field min 276
field max 3391
attr type  int
bin	-INF	0
bin	-1286	0
bin	-1254	0
bin	-1222	0
bin	-1190	0
bin	-1158	0
bin	-1126	0
bin	-1094	0
bin	-1062	0
bin	-1030	0
bin	-998	0
bin	-966	0
bin	-934	0
bin	-902	0
bin	-870	0
bin	-838	0
bin	-806	0
bin	-774	0
bin	-742	0
bin	-710	0
bin	-678	0
bin	-646	0
bin	-614	0
bin	-582	0
bin	-550	0
bin	-518	0
bin	-486	0
bin	-454	0
bin	-422	0
bin	-390	0
bin	-358	0
bin	-326	0
bin	-294	0
bin	-262	0
bin	-230	0
bin	-198	0
bin	-166	0
bin	-134	0
bin	-102	0
bin	-70	0
bin	-38	0
bin	-6	0
bin	26	0
bin	58	0
bin	90	0
bin	122	0
bin	154	0
bin	186	0
bin	218	0
bin	250	19
bin	282	0
bin	314	0
bin	346	0
bin	378	0
bin	410	0
bin	442	0
bin	474	0
bin	506	0
bin	538	3
bin	570	1
bin	602	0
bin	634	0
bin	666	0
bin	698	0
bin	730	0
bin	762	0
bin	794	0
bin	826	5
bin	858	3
bin	890	0
bin	922	0
bin	954	0
bin	986	0
bin	1018	0
bin	1050	0
bin	1082	1
bin	1114	0
bin	1146	2
bin	1178	0
bin	1210	0
bin	1242	0
bin	1274	0
bin	1306	0
bin	1338	0
bin	1370	0
bin	1402	1
bin	1434	1
bin	1466	1
bin	1498	0
bin	1530	0
bin	1562	0
bin	1594	0
bin	1626	0
bin	1658	1
bin	1690	1
bin	1722	0
bin	1754	0
bin	1786	0
bin	1818	0
bin	1850	0
bin	1882	0
bin	1914	0
bin	1946	0
bin	1978	2
bin	2010	1
bin	2042	1
bin	2074	0
bin	2106	0
bin	2138	0
bin	2170	0
bin	2202	0
bin	2234	1
bin	2266	1
bin	2298	0
bin	2330	0
bin	2362	0
bin	2394	0
bin	2426	0
bin	2458	0
bin	2490	1
bin	2522	0
bin	2554	4
bin	2586	0
bin	2618	0
bin	2650	0
bin	2682	0
bin	2714	0
bin	2746	0
bin	2778	0
bin	2810	0
bin	2842	2
bin	2874	0
bin	2906	0
bin	2938	0
bin	2970	0
bin	3002	0
bin	3034	0
bin	3066	0
bin	3098	1
bin	3130	0
bin	3162	0
bin	3194	0
bin	3226	0
bin	3258	0
bin	3290	0
bin	3322	0
bin	3354	0
bin	3386	1
bin	3418	0
bin	3450	0
bin	3482	0
bin	3514	0
bin	3546	0
bin	3578	0
bin	3610	0
bin	3642	0
bin	3674	0
bin	3706	0
bin	3738	0
bin	3770	0
bin	3802	0
bin	3834	0
bin	3866	0
bin	3898	0
bin	3930	0
bin	3962	0
bin	3994	0
bin	4026	0
bin	4058	0
bin	4090	0
bin	4122	0
bin	4154	0
bin	4186	0
bin	4218	0
bin	4250	0
bin	4282	0
bin	4314	0
bin	4346	0
bin	4378	0
bin	4410	0
bin	4442	0
bin	4474	0
bin	4506	0
bin	4538	0
bin	4570	0
bin	4602	0
bin	4634	0
bin	4666	0
bin	4698	0
bin	4730	0
bin	4762	0
bin	4794	0
bin	4826	0
bin	4858	0
bin	4890	0
bin	4922	0
bin	4954	0
scalar scenarioOpp.VPA[14].appl 	"# Bundle Sent" 	72
scalar scenarioOpp.VPA[14].appl 	"# Bundle Received" 	49
scalar scenarioOpp.VPA[14].appl 	"# Unique Bundle Received" 	49
statistic scenarioOpp.VPA[14].appl 	"Delays for 1st Copy"
field count 49
field mean 818.62554931591
field stddev 420.33570716826
field sum 40112.65191648
field sqrsum 41317982.832237
field min 196.96279295607
field max 1992.664911253
bin	-INF	0
bin	-700.88826619241	0
bin	-581.17479163928	0
bin	-461.46131708615	0
bin	-341.74784253302	0
bin	-222.03436797989	0
bin	-102.32089342676	0
bin	17.392581126371	0
bin	137.1060556795	2
bin	256.81953023263	2
bin	376.53300478576	8
bin	496.24647933889	6
bin	615.95995389202	4
bin	735.67342844515	8
bin	855.38690299828	8
bin	975.10037755141	3
bin	1094.8138521045	0
bin	1214.5273266577	2
bin	1334.2408012108	0
bin	1453.9542757639	2
bin	1573.6677503171	2
bin	1693.3812248702	0
bin	1813.0946994233	1
bin	1932.8081739764	1
bin	2052.5216485296	0
bin	2172.2351230827	0
bin	2291.9485976358	0
bin	2411.662072189	0
bin	2531.3755467421	0
bin	2651.0890212952	0
bin	2770.8024958484	0
bin	2890.5159704015	0
statistic scenarioOpp.VPA[14].appl 	"HopCount for 1st Copy"
field count 49
field mean 3.3877551020408
field stddev 1.0957555713337
field sum 166
field sqrsum 620
field min 2
field max 5
attr type  int
bin	-INF	0
bin	0	0
bin	1	0
bin	2	12
bin	3	17
bin	4	9
bin	5	11
bin	6	0
bin	7	0
scalar scenarioOpp.VPA[14].netw 	"# L3Sent" 	532
scalar scenarioOpp.VPA[14].netw 	"# L3Received" 	433
scalar scenarioOpp.VPA[14].netw 	"# of Contacts" 	80
scalar scenarioOpp.VPA[14].netw 	"# of InterContacts" 	25
scalar scenarioOpp.VPA[14].netw 	"# Bundles at L3" 	192
statistic scenarioOpp.VPA[14].netw 	"Histogram for max nbr repeated contact"
field count 16
field mean 1.5625
field stddev 0.72743842809317
field sum 25
field sqrsum 47
field min 1
field max 3
attr type  int
bin	-INF	0
bin	0	0
bin	1	9
bin	2	5
bin	3	2
bin	4	0
scalar scenarioOpp.VPA[14].netw 	"Bars for #repeated 1" 	16
scalar scenarioOpp.VPA[14].netw 	"Bars for #repeated 2" 	7
scalar scenarioOpp.VPA[14].netw 	"Bars for #repeated 3" 	2
scalar scenarioOpp.VPA[14].netw 	"Bars for #repeated 4" 	0
scalar scenarioOpp.VPA[14].netw 	"Bars for #repeated 5" 	0
scalar scenarioOpp.VPA[14].netw 	"Contact CDF LQ1 #repeated 1" 	0
scalar scenarioOpp.VPA[14].netw 	"Contact CDF G1LQ5 #repeated 1" 	0
scalar scenarioOpp.VPA[14].netw 	"Contact CDF G5LQ20 #repeated 1" 	15
scalar scenarioOpp.VPA[14].netw 	"Contact CDF G20LQ50 #repeated 1" 	1
scalar scenarioOpp.VPA[14].netw 	"Contact CDF G50LQ100 #repeated 1" 	0
scalar scenarioOpp.VPA[14].netw 	"Contact CDF G100LQ500 #repeated 1" 	0
scalar scenarioOpp.VPA[14].netw 	"Contact CDF G500 #repeated 1" 	0
scalar scenarioOpp.VPA[14].netw 	"Contact CDF LQ1 #repeated 2" 	0
scalar scenarioOpp.VPA[14].netw 	"Contact CDF G1LQ5 #repeated 2" 	0
scalar scenarioOpp.VPA[14].netw 	"Contact CDF G5LQ20 #repeated 2" 	7
scalar scenarioOpp.VPA[14].netw 	"Contact CDF G20LQ50 #repeated 2" 	0
scalar scenarioOpp.VPA[14].netw 	"Contact CDF G50LQ100 #repeated 2" 	0
scalar scenarioOpp.VPA[14].netw 	"Contact CDF G100LQ500 #repeated 2" 	0
scalar scenarioOpp.VPA[14].netw 	"Contact CDF G500 #repeated 2" 	0
scalar scenarioOpp.VPA[14].netw 	"Contact CDF LQ1 #repeated 3" 	0
scalar scenarioOpp.VPA[14].netw 	"Contact CDF G1LQ5 #repeated 3" 	0
scalar scenarioOpp.VPA[14].netw 	"Contact CDF G5LQ20 #repeated 3" 	2
scalar scenarioOpp.VPA[14].netw 	"Contact CDF G20LQ50 #repeated 3" 	0
scalar scenarioOpp.VPA[14].netw 	"Contact CDF G50LQ100 #repeated 3" 	0
scalar scenarioOpp.VPA[14].netw 	"Contact CDF G100LQ500 #repeated 3" 	0
scalar scenarioOpp.VPA[14].netw 	"Contact CDF G500 #repeated 3" 	0
scalar scenarioOpp.VPA[14].netw 	"InterContact CDF LQ1 #repeated 1" 	0
scalar scenarioOpp.VPA[14].netw 	"InterContact CDF G1LQ5 #repeated 1" 	0
scalar scenarioOpp.VPA[14].netw 	"InterContact CDF G5LQ20 #repeated 1" 	0
scalar scenarioOpp.VPA[14].netw 	"InterContact CDF G20LQ50 #repeated 1" 	0
scalar scenarioOpp.VPA[14].netw 	"InterContact CDF G50LQ100 #repeated 1" 	0
scalar scenarioOpp.VPA[14].netw 	"InterContact CDF G100LQ500 #repeated 1" 	0
scalar scenarioOpp.VPA[14].netw 	"InterContact CDF G500 #repeated 1" 	16
scalar scenarioOpp.VPA[14].netw 	"InterContact CDF LQ1 #repeated 2" 	0
scalar scenarioOpp.VPA[14].netw 	"InterContact CDF G1LQ5 #repeated 2" 	0
scalar scenarioOpp.VPA[14].netw 	"InterContact CDF G5LQ20 #repeated 2" 	0
scalar scenarioOpp.VPA[14].netw 	"InterContact CDF G20LQ50 #repeated 2" 	0
scalar scenarioOpp.VPA[14].netw 	"InterContact CDF G50LQ100 #repeated 2" 	0
scalar scenarioOpp.VPA[14].netw 	"InterContact CDF G100LQ500 #repeated 2" 	0
scalar scenarioOpp.VPA[14].netw 	"InterContact CDF G500 #repeated 2" 	6
scalar scenarioOpp.VPA[14].netw 	"InterContact CDF LQ1 #repeated 3" 	0
scalar scenarioOpp.VPA[14].netw 	"InterContact CDF G1LQ5 #repeated 3" 	0
scalar scenarioOpp.VPA[14].netw 	"InterContact CDF G5LQ20 #repeated 3" 	0
scalar scenarioOpp.VPA[14].netw 	"InterContact CDF G20LQ50 #repeated 3" 	0
scalar scenarioOpp.VPA[14].netw 	"InterContact CDF G50LQ100 #repeated 3" 	0
scalar scenarioOpp.VPA[14].netw 	"InterContact CDF G100LQ500 #repeated 3" 	0
scalar scenarioOpp.VPA[14].netw 	"InterContact CDF G500 #repeated 3" 	2
statistic scenarioOpp.VPA[14].netw 	"Histogram for total contact duration"
field count 16
field mean 30.9375
field stddev 14.373441944549
field sum 495
field sqrsum 18413
field min 18
field max 60
attr type  int
bin	-INF	0
bin	-3	0
bin	-2	0
bin	-1	0
bin	0	0
bin	1	0
bin	2	0
bin	3	0
bin	4	0
bin	5	0
bin	6	0
bin	7	0
bin	8	0
bin	9	0
bin	10	0
bin	11	0
bin	12	0
bin	13	0
bin	14	0
bin	15	0
bin	16	0
bin	17	0
bin	18	1
bin	19	0
bin	20	8
bin	21	0
bin	22	0
bin	23	0
bin	24	0
bin	25	0
bin	26	0
bin	27	0
bin	28	0
bin	29	0
bin	30	0
bin	31	0
bin	32	0
bin	33	0
bin	34	0
bin	35	0
bin	36	0
bin	37	0
bin	38	1
bin	39	0
bin	40	3
bin	41	1
bin	42	0
bin	43	0
bin	44	0
bin	45	0
bin	46	0
bin	47	0
bin	48	0
bin	49	0
bin	50	0
bin	51	0
bin	52	0
bin	53	0
bin	54	0
bin	55	0
bin	56	0
bin	57	0
bin	58	1
bin	59	0
bin	60	1
bin	61	0
bin	62	0
bin	63	0
bin	64	0
bin	65	0
bin	66	0
bin	67	0
bin	68	0
bin	69	0
bin	70	0
bin	71	0
bin	72	0
bin	73	0
bin	74	0
bin	75	0
bin	76	0
bin	77	0
bin	78	0
bin	79	0
bin	80	0
bin	81	0
statistic scenarioOpp.VPA[14].netw 	"Histogram for total interContact duration"
field count 16
field mean 1663.8125
field stddev 649.93335235238
field sum 26621
field sqrsum 50628553
field min 854
field max 2631
attr type  int
bin	-INF	0
bin	-39	0
bin	-21	0
bin	-3	0
bin	15	0
bin	33	0
bin	51	0
bin	69	0
bin	87	0
bin	105	0
bin	123	0
bin	141	0
bin	159	0
bin	177	0
bin	195	0
bin	213	0
bin	231	0
bin	249	0
bin	267	0
bin	285	0
bin	303	0
bin	321	0
bin	339	0
bin	357	0
bin	375	0
bin	393	0
bin	411	0
bin	429	0
bin	447	0
bin	465	0
bin	483	0
bin	501	0
bin	519	0
bin	537	0
bin	555	0
bin	573	0
bin	591	0
bin	609	0
bin	627	0
bin	645	0
bin	663	0
bin	681	0
bin	699	0
bin	717	0
bin	735	0
bin	753	0
bin	771	0
bin	789	0
bin	807	0
bin	825	0
bin	843	1
bin	861	3
bin	879	0
bin	897	0
bin	915	0
bin	933	0
bin	951	0
bin	969	0
bin	987	0
bin	1005	0
bin	1023	0
bin	1041	0
bin	1059	0
bin	1077	0
bin	1095	0
bin	1113	0
bin	1131	0
bin	1149	1
bin	1167	0
bin	1185	0
bin	1203	0
bin	1221	0
bin	1239	0
bin	1257	0
bin	1275	0
bin	1293	0
bin	1311	0
bin	1329	0
bin	1347	0
bin	1365	0
bin	1383	0
bin	1401	0
bin	1419	0
bin	1437	3
bin	1455	0
bin	1473	0
bin	1491	0
bin	1509	0
bin	1527	0
bin	1545	0
bin	1563	0
bin	1581	0
bin	1599	0
bin	1617	0
bin	1635	0
bin	1653	0
bin	1671	0
bin	1689	0
bin	1707	0
bin	1725	1
bin	1743	1
bin	1761	0
bin	1779	0
bin	1797	0
bin	1815	0
bin	1833	0
bin	1851	0
bin	1869	0
bin	1887	0
bin	1905	0
bin	1923	0
bin	1941	0
bin	1959	0
bin	1977	0
bin	1995	1
bin	2013	0
bin	2031	1
bin	2049	0
bin	2067	0
bin	2085	0
bin	2103	0
bin	2121	0
bin	2139	0
bin	2157	0
bin	2175	0
bin	2193	0
bin	2211	0
bin	2229	0
bin	2247	0
bin	2265	0
bin	2283	1
bin	2301	0
bin	2319	0
bin	2337	0
bin	2355	0
bin	2373	0
bin	2391	0
bin	2409	0
bin	2427	0
bin	2445	0
bin	2463	0
bin	2481	0
bin	2499	0
bin	2517	0
bin	2535	0
bin	2553	0
bin	2571	1
bin	2589	0
bin	2607	1
bin	2625	1
bin	2643	0
bin	2661	0
bin	2679	0
bin	2697	0
bin	2715	0
bin	2733	0
bin	2751	0
bin	2769	0
bin	2787	0
bin	2805	0
bin	2823	0
bin	2841	0
bin	2859	0
bin	2877	0
bin	2895	0
bin	2913	0
bin	2931	0
bin	2949	0
bin	2967	0
bin	2985	0
bin	3003	0
bin	3021	0
bin	3039	0
bin	3057	0
bin	3075	0
bin	3093	0
bin	3111	0
bin	3129	0
bin	3147	0
bin	3165	0
bin	3183	0
bin	3201	0
bin	3219	0
bin	3237	0
bin	3255	0
bin	3273	0
bin	3291	0
bin	3309	0
bin	3327	0
bin	3345	0
bin	3363	0
bin	3381	0
bin	3399	0
bin	3417	0
bin	3435	0
bin	3453	0
bin	3471	0
bin	3489	0
bin	3507	0
bin	3525	0
